BEGIN Configuration File: examples/ecc_mesh88_config_1_0.400_packet_2
// $Id$

// Copyright (c) 2007-2015, Trustees of The Leland Stanford Junior University
// All rights reserved.
//
// Redistribution and use in source and binary forms, with or without
// modification, are permitted provided that the following conditions are met:
//
// Redistributions of source code must retain the above copyright notice, this
// list of conditions and the following disclaimer.
// Redistributions in binary form must reproduce the above copyright notice,
// this list of conditions and the following disclaimer in the documentation
// and/or other materials provided with the distribution.
//
// THIS SOFTWARE IS PROVIDED BY THE COPYRIGHT HOLDERS AND CONTRIBUTORS "AS IS"
// AND ANY EXPRESS OR IMPLIED WARRANTIES, INCLUDING, BUT NOT LIMITED TO, THE
// IMPLIED WARRANTIES OF MERCHANTABILITY AND FITNESS FOR A PARTICULAR PURPOSE
// ARE DISCLAIMED. IN NO EVENT SHALL THE COPYRIGHT OWNER OR CONTRIBUTORS BE
// LIABLE FOR ANY DIRECT, INDIRECT, INCIDENTAL, SPECIAL, EXEMPLARY, OR
// CONSEQUENTIAL DAMAGES (INCLUDING, BUT NOT LIMITED TO, PROCUREMENT OF
// SUBSTITUTE GOODS OR SERVICES; LOSS OF USE, DATA, OR PROFITS; OR BUSINESS
// INTERRUPTION) HOWEVER CAUSED AND ON ANY THEORY OF LIABILITY, WHETHER IN
// CONTRACT, STRICT LIABILITY, OR TORT (INCLUDING NEGLIGENCE OR OTHERWISE)
// ARISING IN ANY WAY OUT OF THE USE OF THIS SOFTWARE, EVEN IF ADVISED OF THE
// POSSIBILITY OF SUCH DAMAGE.

// Dragonfly
//




vc_buf_size = 256;


wait_for_tail_credit = 0;

//
// Router architecture
//
vc_allocator = separable_input_first; 
sw_allocator = separable_input_first;
alloc_iters  = 1;

credit_delay   = 2;
routing_delay  = 0;
vc_alloc_delay = 1;
sw_alloc_delay = 1;
st_final_delay = 1;

input_speedup     = 1;
output_speedup    = 1;
internal_speedup  = 2.0;


warmup_periods = 3;
sim_count          = 1;

sample_period  = 10000;  


routing_function = dor;
num_vcs     = 2;

priority = none;
traffic       = uniform; 

injection_rate = 0.4;
packet_size = 1;
injection_rate_uses_flits=1;

topology = mesh;

k  = 8;
n  = 2;

fer = 2;
ecc = link;
correctable = 1;

watch_out=-;
watch_file = watch.txt;

ecc = packet;

stats_out = examples/ecc_mesh88_config_1_0.400_packet_2.m;

END Configuration File: examples/ecc_mesh88_config_1_0.400_packet_2
Additional hops: 4
Adding flit 591 as NACK at time 38
Reenqueueing errored packet 591 at time 47
Additional hops: 12
Adding flit 516 as NACK at time 47
Reenqueueing errored packet 516 at time 64
Additional hops: 21
Adding flit 907 as NACK at time 69
Reenqueueing errored packet 907 at time 88
Additional hops: 31
Adding flit 1521 as NACK at time 101
Additional hops: 38
Adding flit 1927 as NACK at time 106
Additional hops: 52
Adding flit 1526 as NACK at time 110
Reenqueueing errored packet 1927 at time 121
Reenqueueing errored packet 1521 at time 122
Reenqueueing errored packet 1526 at time 139
Uncorrectable 4
Additional hops: 64
Adding flit 2712 as NACK at time 147
Additional hops: 74
Adding flit 2715 as NACK at time 150
Additional hops: 86
Adding flit 2567 as NACK at time 150
Reenqueueing errored packet 2715 at time 171
Reenqueueing errored packet 2712 at time 172
Additional hops: 92
Adding flit 3898 as NACK at time 174
Reenqueueing errored packet 2567 at time 175
Reenqueueing errored packet 3898 at time 187
Additional hops: 97
Adding flit 4787 as NACK at time 209
Additional hops: 106
Adding flit 4435 as NACK at time 211
Additional hops: 117
Adding flit 4145 as NACK at time 212
Additional hops: 124
Adding flit 4899 as NACK at time 218
Reenqueueing errored packet 4787 at time 220
Additional hops: 138
Adding flit 4271 as NACK at time 221
Additional hops: 162
Adding flit 2712 as NACK at time 224
Reenqueueing errored packet 4435 at time 230
Reenqueueing errored packet 4899 at time 233
Reenqueueing errored packet 4145 at time 235
Additional hops: 170
Adding flit 5281 as NACK at time 238
Reenqueueing errored packet 4271 at time 250
Reenqueueing errored packet 5281 at time 255
Additional hops: 179
Adding flit 5679 as NACK at time 257
Additional hops: 189
Adding flit 5604 as NACK at time 260
Additional hops: 201
Adding flit 5482 as NACK at time 262
Reenqueueing errored packet 2712 at time 273
Reenqueueing errored packet 5679 at time 276
Reenqueueing errored packet 5604 at time 281
Reenqueueing errored packet 5482 at time 287
Additional hops: 205
Adding flit 7481 as NACK at time 315
Reenqueueing errored packet 7481 at time 324
Additional hops: 210
Adding flit 7868 as NACK at time 333
Additional hops: 215
Adding flit 8223 as NACK at time 342
Reenqueueing errored packet 7868 at time 344
Additional hops: 222
Adding flit 7938 as NACK at time 344
Reenqueueing errored packet 8223 at time 353
Additional hops: 230
Adding flit 8094 as NACK at time 355
Additional hops: 237
Adding flit 8392 as NACK at time 358
Reenqueueing errored packet 7938 at time 359
Additional hops: 240
Adding flit 9118 as NACK at time 370
Reenqueueing errored packet 8094 at time 372
Reenqueueing errored packet 8392 at time 373
Additional hops: 249
Adding flit 8709 as NACK at time 373
Reenqueueing errored packet 9118 at time 377
Additional hops: 258
Adding flit 8694 as NACK at time 380
Reenqueueing errored packet 8709 at time 392
Additional hops: 263
Adding flit 9581 as NACK at time 395
Reenqueueing errored packet 8694 at time 399
Reenqueueing errored packet 9581 at time 406
Additional hops: 268
Adding flit 10075 as NACK at time 418
Reenqueueing errored packet 10075 at time 429
Additional hops: 272
Adding flit 10580 as NACK at time 435
Additional hops: 278
Adding flit 10642 as NACK at time 443
Reenqueueing errored packet 10580 at time 444
Reenqueueing errored packet 10642 at time 456
Additional hops: 287
Adding flit 11431 as NACK at time 492
Additional hops: 294
Adding flit 12022 as NACK at time 499
Additional hops: 300
Adding flit 12074 as NACK at time 504
Additional hops: 308
Adding flit 12070 as NACK at time 504
Additional hops: 314
Adding flit 12170 as NACK at time 507
Reenqueueing errored packet 11431 at time 511
Reenqueueing errored packet 12022 at time 514
Reenqueueing errored packet 12074 at time 517
Reenqueueing errored packet 12170 at time 520
Additional hops: 322
Adding flit 12140 as NACK at time 520
Reenqueueing errored packet 12070 at time 521
Reenqueueing errored packet 12140 at time 537
Additional hops: 331
Adding flit 13038 as NACK at time 544
Reenqueueing errored packet 13038 at time 563
Additional hops: 338
Adding flit 13487 as NACK at time 563
Additional hops: 350
Adding flit 12962 as NACK at time 567
Additional hops: 359
Adding flit 13472 as NACK at time 570
Reenqueueing errored packet 13487 at time 578
Reenqueueing errored packet 13472 at time 589
Reenqueueing errored packet 12962 at time 592
Additional hops: 366
Adding flit 14915 as NACK at time 612
Additional hops: 380
Adding flit 14497 as NACK at time 620
Uncorrectable 3
Additional hops: 388
Adding flit 15016 as NACK at time 621
Reenqueueing errored packet 14915 at time 627
Additional hops: 396
Adding flit 15091 as NACK at time 628
Reenqueueing errored packet 15016 at time 638
Reenqueueing errored packet 15091 at time 645
Reenqueueing errored packet 14497 at time 649
Additional hops: 404
Adding flit 16776 as NACK at time 692
Uncorrectable 3
Additional hops: 413
Adding flit 17047 as NACK at time 701
Reenqueueing errored packet 16776 at time 709
Additional hops: 423
Adding flit 17256 as NACK at time 713
Reenqueueing errored packet 17047 at time 720
Additional hops: 437
Adding flit 17337 as NACK at time 729
Reenqueueing errored packet 17256 at time 734
Additional hops: 443
Adding flit 18312 as NACK at time 739
Reenqueueing errored packet 18312 at time 752
Reenqueueing errored packet 17337 at time 758
Additional hops: 449
Adding flit 19283 as NACK at time 779
Additional hops: 456
Adding flit 19519 as NACK at time 791
Additional hops: 468
Adding flit 18830 as NACK at time 791
Reenqueueing errored packet 19283 at time 792
Additional hops: 477
Adding flit 19161 as NACK at time 794
Reenqueueing errored packet 19519 at time 806
Additional hops: 482
Adding flit 20158 as NACK at time 809
Reenqueueing errored packet 19161 at time 813
Reenqueueing errored packet 18830 at time 816
Additional hops: 489
Adding flit 20242 as NACK at time 819
Reenqueueing errored packet 20158 at time 820
Reenqueueing errored packet 20242 at time 834
Additional hops: 497
Adding flit 20722 as NACK at time 845
Additional hops: 506
Adding flit 20821 as NACK at time 854
Additional hops: 511
Adding flit 21231 as NACK at time 856
Additional hops: 518
Adding flit 21206 as NACK at time 857
Additional hops: 522
Adding flit 21471 as NACK at time 857
Reenqueueing errored packet 20722 at time 862
Additional hops: 533
Adding flit 20769 as NACK at time 865
Reenqueueing errored packet 21471 at time 866
Reenqueueing errored packet 21231 at time 867
Reenqueueing errored packet 21206 at time 872
Additional hops: 542
Adding flit 21352 as NACK at time 872
Reenqueueing errored packet 20821 at time 873
Additional hops: 556
Adding flit 21257 as NACK at time 881
Additional hops: 565
Adding flit 21661 as NACK at time 884
Additional hops: 575
Adding flit 21546 as NACK at time 887
Reenqueueing errored packet 20769 at time 888
Additional hops: 583
Adding flit 21924 as NACK at time 890
Reenqueueing errored packet 21352 at time 891
Additional hops: 590
Adding flit 22176 as NACK at time 896
Reenqueueing errored packet 21661 at time 903
Reenqueueing errored packet 21924 at time 907
Reenqueueing errored packet 21546 at time 908
Reenqueueing errored packet 21257 at time 910
Reenqueueing errored packet 22176 at time 911
Additional hops: 599
Adding flit 22907 as NACK at time 931
Additional hops: 611
Adding flit 22640 as NACK at time 939
Additional hops: 623
Adding flit 22945 as NACK at time 943
Reenqueueing errored packet 22907 at time 950
Reenqueueing errored packet 22640 at time 964
Reenqueueing errored packet 22945 at time 968
Additional hops: 629
Adding flit 24270 as NACK at time 983
Reenqueueing errored packet 24270 at time 996
Additional hops: 641
Adding flit 25003 as NACK at time 1023
Additional hops: 645
Adding flit 25902 as NACK at time 1035
Reenqueueing errored packet 25902 at time 1044
Additional hops: 653
Adding flit 25660 as NACK at time 1045
Reenqueueing errored packet 25003 at time 1048
Additional hops: 662
Adding flit 26146 as NACK at time 1057
Additional hops: 669
Adding flit 26266 as NACK at time 1058
Reenqueueing errored packet 25660 at time 1062
Additional hops: 678
Adding flit 26282 as NACK at time 1069
Reenqueueing errored packet 26266 at time 1073
Additional hops: 687
Adding flit 26521 as NACK at time 1075
Reenqueueing errored packet 26146 at time 1076
Additional hops: 694
Adding flit 27029 as NACK at time 1087
Reenqueueing errored packet 26282 at time 1088
Additional hops: 695
Adding flit 27624 as NACK at time 1091
Reenqueueing errored packet 27624 at time 1094
Reenqueueing errored packet 26521 at time 1094
Reenqueueing errored packet 27029 at time 1102
Additional hops: 707
Adding flit 27179 as NACK at time 1112
Additional hops: 715
Adding flit 27736 as NACK at time 1120
Additional hops: 728
Adding flit 27652 as NACK at time 1132
Reenqueueing errored packet 27736 at time 1137
Reenqueueing errored packet 27179 at time 1137
Reenqueueing errored packet 27652 at time 1159
Additional hops: 734
Adding flit 29042 as NACK at time 1163
Reenqueueing errored packet 29042 at time 1176
Uncorrectable 3
Additional hops: 739
Adding flit 29922 as NACK at time 1198
Additional hops: 749
Adding flit 29514 as NACK at time 1199
Reenqueueing errored packet 29922 at time 1209
Reenqueueing errored packet 29514 at time 1220
Additional hops: 756
Adding flit 30455 as NACK at time 1229
Additional hops: 766
Adding flit 30419 as NACK at time 1237
Additional hops: 774
Adding flit 30742 as NACK at time 1239
Reenqueueing errored packet 30455 at time 1244
Additional hops: 783
Adding flit 30727 as NACK at time 1244
Reenqueueing errored packet 30742 at time 1256
Reenqueueing errored packet 30419 at time 1258
Reenqueueing errored packet 30727 at time 1263
Additional hops: 787
Adding flit 32170 as NACK at time 1283
Additional hops: 793
Adding flit 32071 as NACK at time 1285
Reenqueueing errored packet 32170 at time 1292
Reenqueueing errored packet 32071 at time 1298
Additional hops: 801
Adding flit 32545 as NACK at time 1309
Reenqueueing errored packet 32545 at time 1326
Additional hops: 809
Adding flit 33015 as NACK at time 1335
Additional hops: 813
Adding flit 33527 as NACK at time 1336
Reenqueueing errored packet 33527 at time 1345
Additional hops: 823
Adding flit 32917 as NACK at time 1347
Additional hops: 831
Adding flit 33554 as NACK at time 1350
Reenqueueing errored packet 33015 at time 1352
Reenqueueing errored packet 33554 at time 1367
Reenqueueing errored packet 32917 at time 1368
Additional hops: 837
Adding flit 34673 as NACK at time 1390
Reenqueueing errored packet 34673 at time 1403
Additional hops: 842
Adding flit 36467 as NACK at time 1458
Reenqueueing errored packet 36467 at time 1469
Additional hops: 846
Adding flit 37315 as NACK at time 1483
Reenqueueing errored packet 37315 at time 1492
Additional hops: 849
Adding flit 37877 as NACK at time 1502
Additional hops: 855
Adding flit 37558 as NACK at time 1504
Reenqueueing errored packet 37877 at time 1509
Additional hops: 861
Adding flit 37822 as NACK at time 1514
Reenqueueing errored packet 37558 at time 1517
Additional hops: 873
Adding flit 36901 as NACK at time 1518
Additional hops: 878
Adding flit 38130 as NACK at time 1521
Reenqueueing errored packet 37822 at time 1527
Additional hops: 882
Adding flit 38475 as NACK at time 1527
Reenqueueing errored packet 38130 at time 1532
Reenqueueing errored packet 38475 at time 1536
Reenqueueing errored packet 36901 at time 1543
Additional hops: 890
Adding flit 38642 as NACK at time 1551
Additional hops: 893
Adding flit 39355 as NACK at time 1560
Additional hops: 898
Adding flit 39215 as NACK at time 1561
Additional hops: 904
Adding flit 39113 as NACK at time 1564
Reenqueueing errored packet 39355 at time 1567
Reenqueueing errored packet 38642 at time 1568
Reenqueueing errored packet 39215 at time 1572
Additional hops: 913
Adding flit 39208 as NACK at time 1575
Reenqueueing errored packet 39113 at time 1577
Additional hops: 921
Adding flit 39480 as NACK at time 1583
Reenqueueing errored packet 39208 at time 1594
Reenqueueing errored packet 39480 at time 1600
Additional hops: 928
Adding flit 40453 as NACK at time 1617
Additional hops: 936
Adding flit 40695 as NACK at time 1629
Additional hops: 945
Adding flit 40560 as NACK at time 1631
Reenqueueing errored packet 40453 at time 1632
Reenqueueing errored packet 40695 at time 1646
Reenqueueing errored packet 40560 at time 1650
Additional hops: 954
Adding flit 41147 as NACK at time 1652
Reenqueueing errored packet 41147 at time 1671
Additional hops: 959
Adding flit 41883 as NACK at time 1671
Reenqueueing errored packet 41883 at time 1682
Additional hops: 967
Adding flit 42848 as NACK at time 1718
Reenqueueing errored packet 42848 at time 1735
Additional hops: 979
Adding flit 43413 as NACK at time 1752
Additional hops: 988
Adding flit 44068 as NACK at time 1769
Additional hops: 995
Adding flit 44330 as NACK at time 1773
Reenqueueing errored packet 43413 at time 1777
Reenqueueing errored packet 44330 at time 1788
Reenqueueing errored packet 44068 at time 1788
Additional hops: 997
Adding flit 45354 as NACK at time 1793
Reenqueueing errored packet 45354 at time 1798
Additional hops: 1006
Adding flit 45213 as NACK at time 1812
Reenqueueing errored packet 45213 at time 1831
Additional hops: 1009
Adding flit 46203 as NACK at time 1833
Additional hops: 1013
Adding flit 46226 as NACK at time 1833
Reenqueueing errored packet 46203 at time 1840
Reenqueueing errored packet 46226 at time 1842
Additional hops: 1024
Adding flit 45876 as NACK at time 1843
Additional hops: 1030
Adding flit 46747 as NACK at time 1861
Reenqueueing errored packet 45876 at time 1866
Reenqueueing errored packet 46747 at time 1874
Additional hops: 1037
Adding flit 46918 as NACK at time 1874
Additional hops: 1044
Adding flit 46938 as NACK at time 1874
Additional hops: 1053
Adding flit 47017 as NACK at time 1881
Reenqueueing errored packet 46938 at time 1889
Reenqueueing errored packet 46918 at time 1889
Reenqueueing errored packet 47017 at time 1900
Additional hops: 1065
Adding flit 47060 as NACK at time 1909
Additional hops: 1071
Adding flit 48010 as NACK at time 1914
Additional hops: 1078
Adding flit 48177 as NACK at time 1926
Reenqueueing errored packet 48010 at time 1927
Uncorrectable 3
Additional hops: 1085
Adding flit 48404 as NACK at time 1929
Reenqueueing errored packet 47060 at time 1934
Additional hops: 1095
Adding flit 48307 as NACK at time 1939
Reenqueueing errored packet 48177 at time 1941
Reenqueueing errored packet 48404 at time 1944
Reenqueueing errored packet 48307 at time 1960
Additional hops: 1105
Adding flit 48995 as NACK at time 1960
Reenqueueing errored packet 48995 at time 1981
Additional hops: 1114
Adding flit 49605 as NACK at time 1984
Reenqueueing errored packet 49605 at time 2003
Additional hops: 1123
Adding flit 50077 as NACK at time 2003
Additional hops: 1128
Adding flit 50407 as NACK at time 2004
Reenqueueing errored packet 50407 at time 2015
Additional hops: 1135
Adding flit 50572 as NACK at time 2017
Additional hops: 1145
Adding flit 50505 as NACK at time 2021
Reenqueueing errored packet 50077 at time 2022
Reenqueueing errored packet 50572 at time 2032
Reenqueueing errored packet 50505 at time 2042
Additional hops: 1152
Adding flit 51545 as NACK at time 2056
Additional hops: 1161
Adding flit 51490 as NACK at time 2059
Additional hops: 1171
Adding flit 51640 as NACK at time 2068
Reenqueueing errored packet 51545 at time 2071
Additional hops: 1178
Adding flit 51972 as NACK at time 2072
Additional hops: 1188
Adding flit 51815 as NACK at time 2076
Reenqueueing errored packet 51490 at time 2078
Reenqueueing errored packet 51972 at time 2087
Reenqueueing errored packet 51640 at time 2089
Reenqueueing errored packet 51815 at time 2097
Additional hops: 1195
Adding flit 52979 as NACK at time 2118
Additional hops: 1203
Adding flit 53055 as NACK at time 2121
Reenqueueing errored packet 52979 at time 2133
Additional hops: 1211
Adding flit 53415 as NACK at time 2136
Reenqueueing errored packet 53055 at time 2138
Additional hops: 1222
Adding flit 53355 as NACK at time 2138
Reenqueueing errored packet 53415 at time 2153
Additional hops: 1227
Adding flit 54270 as NACK at time 2157
Additional hops: 1238
Adding flit 53834 as NACK at time 2159
Reenqueueing errored packet 53355 at time 2161
Reenqueueing errored packet 54270 at time 2168
Reenqueueing errored packet 53834 at time 2182
Additional hops: 1245
Adding flit 55059 as NACK at time 2192
Additional hops: 1250
Adding flit 55128 as NACK at time 2194
Additional hops: 1260
Adding flit 54575 as NACK at time 2198
Reenqueueing errored packet 55128 at time 2205
Reenqueueing errored packet 55059 at time 2207
Reenqueueing errored packet 54575 at time 2219
Additional hops: 1270
Adding flit 56013 as NACK at time 2237
Additional hops: 1278
Adding flit 56089 as NACK at time 2243
Reenqueueing errored packet 56013 at time 2258
Reenqueueing errored packet 56089 at time 2260
Additional hops: 1288
Adding flit 56453 as NACK at time 2261
Uncorrectable 3
Additional hops: 1302
Adding flit 56068 as NACK at time 2261
Additional hops: 1309
Adding flit 57206 as NACK at time 2278
Reenqueueing errored packet 56453 at time 2282
Uncorrectable 4
Additional hops: 1318
Adding flit 57223 as NACK at time 2287
Reenqueueing errored packet 56068 at time 2290
Reenqueueing errored packet 57206 at time 2293
Reenqueueing errored packet 57223 at time 2306
Additional hops: 1326
Adding flit 59359 as NACK at time 2369
Reenqueueing errored packet 59359 at time 2386
Additional hops: 1332
Adding flit 60638 as NACK at time 2408
Additional hops: 1340
Adding flit 60727 as NACK at time 2418
Reenqueueing errored packet 60638 at time 2421
Additional hops: 1347
Adding flit 61169 as NACK at time 2429
Reenqueueing errored packet 60727 at time 2435
Uncorrectable 3
Additional hops: 1358
Adding flit 61020 as NACK at time 2440
Reenqueueing errored packet 61169 at time 2444
Additional hops: 1367
Adding flit 61724 as NACK at time 2458
Reenqueueing errored packet 61020 at time 2463
Additional hops: 1378
Adding flit 61814 as NACK at time 2471
Reenqueueing errored packet 61724 at time 2477
Additional hops: 1385
Adding flit 62341 as NACK at time 2481
Additional hops: 1395
Adding flit 62268 as NACK at time 2484
Additional hops: 1406
Adding flit 62277 as NACK at time 2485
Reenqueueing errored packet 61814 at time 2494
Reenqueueing errored packet 62341 at time 2496
Additional hops: 1416
Adding flit 62558 as NACK at time 2499
Reenqueueing errored packet 62268 at time 2505
Reenqueueing errored packet 62277 at time 2508
Additional hops: 1423
Adding flit 63262 as NACK at time 2515
Reenqueueing errored packet 62558 at time 2520
Additional hops: 1427
Adding flit 63910 as NACK at time 2526
Reenqueueing errored packet 63262 at time 2530
Additional hops: 1436
Adding flit 63491 as NACK at time 2534
Reenqueueing errored packet 63910 at time 2535
Additional hops: 1444
Adding flit 63912 as NACK at time 2543
Reenqueueing errored packet 63491 at time 2553
Reenqueueing errored packet 63912 at time 2560
Additional hops: 1449
Adding flit 64656 as NACK at time 2567
Reenqueueing errored packet 64656 at time 2578
Additional hops: 1455
Adding flit 65889 as NACK at time 2618
Additional hops: 1460
Adding flit 66310 as NACK at time 2627
Reenqueueing errored packet 65889 at time 2631
Additional hops: 1466
Adding flit 66285 as NACK at time 2635
Reenqueueing errored packet 66310 at time 2638
Additional hops: 1474
Adding flit 66394 as NACK at time 2639
Reenqueueing errored packet 66285 at time 2648
Additional hops: 1484
Adding flit 66486 as NACK at time 2651
Reenqueueing errored packet 66394 at time 2656
Reenqueueing errored packet 66486 at time 2672
Additional hops: 1494
Adding flit 67034 as NACK at time 2677
Additional hops: 1501
Adding flit 67591 as NACK at time 2679
Additional hops: 1509
Adding flit 67359 as NACK at time 2679
Additional hops: 1517
Adding flit 67578 as NACK at time 2688
Reenqueueing errored packet 67591 at time 2694
Reenqueueing errored packet 67359 at time 2696
Reenqueueing errored packet 67034 at time 2698
Additional hops: 1524
Adding flit 68063 as NACK at time 2698
Additional hops: 1534
Adding flit 67869 as NACK at time 2698
Reenqueueing errored packet 67578 at time 2705
Reenqueueing errored packet 68063 at time 2713
Reenqueueing errored packet 67869 at time 2719
Additional hops: 1545
Adding flit 68345 as NACK at time 2721
Additional hops: 1551
Adding flit 68833 as NACK at time 2725
Reenqueueing errored packet 68833 at time 2738
Reenqueueing errored packet 68345 at time 2744
Additional hops: 1554
Adding flit 69746 as NACK at time 2752
Additional hops: 1564
Adding flit 69222 as NACK at time 2753
Reenqueueing errored packet 69746 at time 2759
Reenqueueing errored packet 69222 at time 2774
Additional hops: 1573
Adding flit 70019 as NACK at time 2783
Additional hops: 1576
Adding flit 70710 as NACK at time 2788
Additional hops: 1584
Adding flit 70201 as NACK at time 2791
Additional hops: 1591
Adding flit 70538 as NACK at time 2793
Additional hops: 1604
Adding flit 70001 as NACK at time 2793
Reenqueueing errored packet 70710 at time 2795
Reenqueueing errored packet 70019 at time 2802
Reenqueueing errored packet 70538 at time 2808
Reenqueueing errored packet 70201 at time 2808
Reenqueueing errored packet 70001 at time 2820
Additional hops: 1613
Adding flit 71088 as NACK at time 2828
Additional hops: 1620
Adding flit 71524 as NACK at time 2831
Additional hops: 1630
Adding flit 71115 as NACK at time 2831
Reenqueueing errored packet 71524 at time 2846
Reenqueueing errored packet 71088 at time 2847
Additional hops: 1636
Adding flit 72081 as NACK at time 2850
Reenqueueing errored packet 71115 at time 2852
Reenqueueing errored packet 72081 at time 2863
Additional hops: 1641
Adding flit 72576 as NACK at time 2869
Additional hops: 1646
Adding flit 72779 as NACK at time 2875
Reenqueueing errored packet 72576 at time 2880
Additional hops: 1655
Adding flit 72520 as NACK at time 2882
Reenqueueing errored packet 72779 at time 2886
Reenqueueing errored packet 72520 at time 2901
Additional hops: 1662
Adding flit 73415 as NACK at time 2907
Additional hops: 1672
Adding flit 73253 as NACK at time 2917
Reenqueueing errored packet 73415 at time 2922
Additional hops: 1681
Adding flit 73628 as NACK at time 2927
Additional hops: 1686
Adding flit 74321 as NACK at time 2935
Reenqueueing errored packet 73253 at time 2938
Additional hops: 1691
Adding flit 74417 as NACK at time 2939
Additional hops: 1698
Adding flit 74021 as NACK at time 2939
Uncorrectable 3
Additional hops: 1702
Adding flit 74721 as NACK at time 2945
Reenqueueing errored packet 74321 at time 2946
Reenqueueing errored packet 73628 at time 2946
Additional hops: 1710
Adding flit 74312 as NACK at time 2948
Additional hops: 1719
Adding flit 74263 as NACK at time 2948
Reenqueueing errored packet 74417 at time 2950
Additional hops: 1722
Adding flit 75022 as NACK at time 2953
Reenqueueing errored packet 74721 at time 2954
Reenqueueing errored packet 74021 at time 2954
Reenqueueing errored packet 75022 at time 2960
Reenqueueing errored packet 74312 at time 2965
Reenqueueing errored packet 74263 at time 2967
Additional hops: 1733
Adding flit 75525 as NACK at time 3008
Additional hops: 1740
Adding flit 76460 as NACK at time 3020
Reenqueueing errored packet 75525 at time 3031
Reenqueueing errored packet 76460 at time 3035
Additional hops: 1750
Adding flit 76914 as NACK at time 3050
Additional hops: 1755
Adding flit 77200 as NACK at time 3050
Additional hops: 1765
Adding flit 77102 as NACK at time 3056
Additional hops: 1768
Adding flit 77729 as NACK at time 3058
Reenqueueing errored packet 77200 at time 3061
Reenqueueing errored packet 77729 at time 3065
Reenqueueing errored packet 76914 at time 3071
Reenqueueing errored packet 77102 at time 3077
Additional hops: 1773
Adding flit 78061 as NACK at time 3077
Reenqueueing errored packet 78061 at time 3088
Additional hops: 1782
Adding flit 78127 as NACK at time 3097
Additional hops: 1793
Adding flit 78442 as NACK at time 3112
Reenqueueing errored packet 78127 at time 3116
Additional hops: 1800
Adding flit 78925 as NACK at time 3117
Reenqueueing errored packet 78925 at time 3132
Reenqueueing errored packet 78442 at time 3135
Additional hops: 1809
Adding flit 79776 as NACK at time 3158
Additional hops: 1815
Adding flit 80056 as NACK at time 3159
Additional hops: 1824
Adding flit 79717 as NACK at time 3162
Additional hops: 1831
Adding flit 80165 as NACK at time 3171
Reenqueueing errored packet 80056 at time 3172
Additional hops: 1841
Adding flit 80156 as NACK at time 3176
Reenqueueing errored packet 79776 at time 3177
Reenqueueing errored packet 79717 at time 3181
Additional hops: 1850
Adding flit 80382 as NACK at time 3181
Additional hops: 1852
Adding flit 80999 as NACK at time 3183
Reenqueueing errored packet 80165 at time 3186
Reenqueueing errored packet 80999 at time 3188
Reenqueueing errored packet 80156 at time 3197
Additional hops: 1856
Adding flit 81224 as NACK at time 3198
Additional hops: 1862
Adding flit 81077 as NACK at time 3199
Reenqueueing errored packet 80382 at time 3200
Reenqueueing errored packet 81224 at time 3207
Additional hops: 1871
Adding flit 81018 as NACK at time 3208
Additional hops: 1876
Adding flit 81471 as NACK at time 3209
Additional hops: 1883
Adding flit 81151 as NACK at time 3210
Additional hops: 1892
Adding flit 81105 as NACK at time 3211
Reenqueueing errored packet 81077 at time 3212
Reenqueueing errored packet 81471 at time 3220
Reenqueueing errored packet 81151 at time 3225
Reenqueueing errored packet 81018 at time 3227
Additional hops: 1899
Adding flit 81659 as NACK at time 3228
Reenqueueing errored packet 81105 at time 3230
Additional hops: 1908
Adding flit 81685 as NACK at time 3231
Additional hops: 1915
Adding flit 81827 as NACK at time 3232
Additional hops: 1926
Adding flit 81603 as NACK at time 3242
Reenqueueing errored packet 81659 at time 3243
Reenqueueing errored packet 81827 at time 3247
Reenqueueing errored packet 81685 at time 3250
Reenqueueing errored packet 81603 at time 3265
Additional hops: 1936
Adding flit 82419 as NACK at time 3270
Additional hops: 1942
Adding flit 82890 as NACK at time 3273
Additional hops: 1951
Adding flit 82937 as NACK at time 3285
Reenqueueing errored packet 82890 at time 3286
Reenqueueing errored packet 82419 at time 3291
Additional hops: 1956
Adding flit 83475 as NACK at time 3294
Reenqueueing errored packet 82937 at time 3304
Additional hops: 1969
Adding flit 83029 as NACK at time 3304
Reenqueueing errored packet 83475 at time 3305
Additional hops: 1976
Adding flit 83742 as NACK at time 3310
Reenqueueing errored packet 83742 at time 3325
Reenqueueing errored packet 83029 at time 3331
Additional hops: 1989
Adding flit 84233 as NACK at time 3344
Additional hops: 1996
Adding flit 84771 as NACK at time 3347
Reenqueueing errored packet 84771 at time 3362
Reenqueueing errored packet 84233 at time 3371
Additional hops: 2009
Adding flit 84859 as NACK at time 3371
Additional hops: 2013
Adding flit 85605 as NACK at time 3372
Reenqueueing errored packet 85605 at time 3381
Additional hops: 2020
Adding flit 85920 as NACK at time 3389
Additional hops: 2025
Adding flit 86117 as NACK at time 3396
Additional hops: 2030
Adding flit 86170 as NACK at time 3396
Reenqueueing errored packet 84859 at time 3398
Uncorrectable 3
Additional hops: 2040
Adding flit 85918 as NACK at time 3401
Reenqueueing errored packet 85920 at time 3404
Reenqueueing errored packet 86170 at time 3407
Reenqueueing errored packet 86117 at time 3407
Additional hops: 2048
Adding flit 86034 as NACK at time 3409
Additional hops: 2050
Adding flit 86819 as NACK at time 3409
Additional hops: 2059
Adding flit 86166 as NACK at time 3412
Reenqueueing errored packet 86819 at time 3414
Uncorrectable 3
Additional hops: 2064
Adding flit 86900 as NACK at time 3420
Reenqueueing errored packet 85918 at time 3422
Reenqueueing errored packet 86034 at time 3426
Additional hops: 2074
Adding flit 86557 as NACK at time 3428
Reenqueueing errored packet 86900 at time 3431
Reenqueueing errored packet 86166 at time 3431
Additional hops: 2080
Adding flit 87411 as NACK at time 3443
Additional hops: 2089
Adding flit 87061 as NACK at time 3446
Reenqueueing errored packet 86557 at time 3449
Reenqueueing errored packet 87411 at time 3456
Reenqueueing errored packet 87061 at time 3465
Additional hops: 2097
Adding flit 88074 as NACK at time 3485
Additional hops: 2103
Adding flit 88494 as NACK at time 3488
Reenqueueing errored packet 88494 at time 3501
Reenqueueing errored packet 88074 at time 3502
Additional hops: 2113
Adding flit 88972 as NACK at time 3521
Additional hops: 2119
Adding flit 89560 as NACK at time 3532
Reenqueueing errored packet 88972 at time 3542
Reenqueueing errored packet 89560 at time 3545
Additional hops: 2127
Adding flit 90692 as NACK at time 3582
Reenqueueing errored packet 90692 at time 3599
Additional hops: 2133
Adding flit 91316 as NACK at time 3603
Reenqueueing errored packet 91316 at time 3616
Uncorrectable 3
Additional hops: 2143
Adding flit 91775 as NACK at time 3629
Additional hops: 2154
Adding flit 91610 as NACK at time 3632
Reenqueueing errored packet 91775 at time 3650
Reenqueueing errored packet 91610 at time 3655
Additional hops: 2161
Adding flit 92700 as NACK at time 3658
Additional hops: 2169
Adding flit 92677 as NACK at time 3660
Additional hops: 2178
Adding flit 92435 as NACK at time 3662
Additional hops: 2183
Adding flit 93121 as NACK at time 3667
Reenqueueing errored packet 92700 at time 3673
Additional hops: 2190
Adding flit 93219 as NACK at time 3676
Reenqueueing errored packet 92677 at time 3677
Reenqueueing errored packet 93121 at time 3678
Reenqueueing errored packet 92435 at time 3681
Reenqueueing errored packet 93219 at time 3691
Additional hops: 2195
Adding flit 93884 as NACK at time 3698
Reenqueueing errored packet 93884 at time 3709
Additional hops: 2204
Adding flit 93903 as NACK at time 3717
Additional hops: 2212
Adding flit 94101 as NACK at time 3717
Additional hops: 2219
Adding flit 94355 as NACK at time 3724
Reenqueueing errored packet 94101 at time 3734
Reenqueueing errored packet 93903 at time 3736
Reenqueueing errored packet 94355 at time 3739
Additional hops: 2226
Adding flit 95080 as NACK at time 3758
Reenqueueing errored packet 95080 at time 3773
Uncorrectable 3
Additional hops: 2232
Adding flit 96896 as NACK at time 3819
Reenqueueing errored packet 96896 at time 3832
Additional hops: 2239
Adding flit 98003 as NACK at time 3865
Additional hops: 2247
Adding flit 98034 as NACK at time 3871
Reenqueueing errored packet 98003 at time 3880
Reenqueueing errored packet 98034 at time 3888
Additional hops: 2254
Adding flit 98763 as NACK at time 3895
Additional hops: 2264
Adding flit 98792 as NACK at time 3909
Reenqueueing errored packet 98763 at time 3910
Uncorrectable 3
Additional hops: 2272
Adding flit 99281 as NACK at time 3921
Reenqueueing errored packet 98792 at time 3930
Reenqueueing errored packet 99281 at time 3938
Additional hops: 2282
Adding flit 99588 as NACK at time 3940
Additional hops: 2293
Adding flit 99432 as NACK at time 3942
Additional hops: 2301
Adding flit 99849 as NACK at time 3946
Additional hops: 2308
Adding flit 100162 as NACK at time 3950
Reenqueueing errored packet 99588 at time 3961
Additional hops: 2313
Adding flit 100575 as NACK at time 3962
Reenqueueing errored packet 99849 at time 3963
Additional hops: 2320
Adding flit 100446 as NACK at time 3963
Reenqueueing errored packet 100162 at time 3965
Reenqueueing errored packet 99432 at time 3965
Additional hops: 2326
Adding flit 100534 as NACK at time 3965
Reenqueueing errored packet 100575 at time 3973
Additional hops: 2337
Adding flit 100365 as NACK at time 3977
Reenqueueing errored packet 100534 at time 3978
Reenqueueing errored packet 100446 at time 3978
Additional hops: 2349
Adding flit 100056 as NACK at time 3978
Additional hops: 2361
Adding flit 100624 as NACK at time 3987
Reenqueueing errored packet 100365 at time 4000
Reenqueueing errored packet 100056 at time 4003
Reenqueueing errored packet 100624 at time 4012
Additional hops: 2368
Adding flit 101768 as NACK at time 4024
Additional hops: 2375
Adding flit 102286 as NACK at time 4034
Reenqueueing errored packet 101768 at time 4039
Reenqueueing errored packet 102286 at time 4049
Additional hops: 2382
Adding flit 102553 as NACK at time 4052
Additional hops: 2385
Adding flit 103408 as NACK at time 4066
Reenqueueing errored packet 102553 at time 4067
Reenqueueing errored packet 103408 at time 4073
Additional hops: 2397
Adding flit 102976 as NACK at time 4078
Additional hops: 2409
Adding flit 102847 as NACK at time 4078
Additional hops: 2416
Adding flit 103584 as NACK at time 4089
Reenqueueing errored packet 102847 at time 4103
Reenqueueing errored packet 102976 at time 4103
Reenqueueing errored packet 103584 at time 4104
Additional hops: 2425
Adding flit 103780 as NACK at time 4109
Additional hops: 2434
Adding flit 104027 as NACK at time 4113
Additional hops: 2440
Adding flit 104364 as NACK at time 4113
Additional hops: 2449
Adding flit 104306 as NACK at time 4121
Additional hops: 2457
Adding flit 104202 as NACK at time 4121
Additional hops: 2464
Adding flit 104346 as NACK at time 4125
Reenqueueing errored packet 104364 at time 4126
Reenqueueing errored packet 103780 at time 4128
Reenqueueing errored packet 104027 at time 4132
Reenqueueing errored packet 104202 at time 4138
Reenqueueing errored packet 104346 at time 4140
Reenqueueing errored packet 104306 at time 4140
Additional hops: 2470
Adding flit 105327 as NACK at time 4150
Reenqueueing errored packet 105327 at time 4163
Additional hops: 2476
Adding flit 106290 as NACK at time 4189
Additional hops: 2481
Adding flit 106701 as NACK at time 4200
Reenqueueing errored packet 106290 at time 4202
Additional hops: 2483
Adding flit 107166 as NACK at time 4208
Reenqueueing errored packet 106701 at time 4211
Reenqueueing errored packet 107166 at time 4213
Additional hops: 2492
Adding flit 107157 as NACK at time 4231
Reenqueueing errored packet 107157 at time 4250
Additional hops: 2502
Adding flit 107362 as NACK at time 4250
Additional hops: 2514
Adding flit 107413 as NACK at time 4252
Additional hops: 2526
Adding flit 107415 as NACK at time 4263
Reenqueueing errored packet 107362 at time 4271
Additional hops: 2527
Adding flit 108887 as NACK at time 4273
Reenqueueing errored packet 108887 at time 4276
Reenqueueing errored packet 107413 at time 4277
Additional hops: 2531
Adding flit 108797 as NACK at time 4281
Additional hops: 2534
Adding flit 108901 as NACK at time 4282
Reenqueueing errored packet 107415 at time 4288
Reenqueueing errored packet 108901 at time 4289
Reenqueueing errored packet 108797 at time 4290
Additional hops: 2535
Adding flit 109342 as NACK at time 4292
Reenqueueing errored packet 109342 at time 4295
Additional hops: 2547
Adding flit 108606 as NACK at time 4297
Reenqueueing errored packet 108606 at time 4322
Additional hops: 2555
Adding flit 110118 as NACK at time 4346
Additional hops: 2566
Adding flit 110094 as NACK at time 4353
Additional hops: 2573
Adding flit 110527 as NACK at time 4359
Reenqueueing errored packet 110118 at time 4363
Additional hops: 2580
Adding flit 110729 as NACK at time 4367
Reenqueueing errored packet 110527 at time 4374
Additional hops: 2588
Adding flit 110755 as NACK at time 4375
Reenqueueing errored packet 110094 at time 4376
Reenqueueing errored packet 110729 at time 4382
Additional hops: 2592
Adding flit 111615 as NACK at time 4391
Reenqueueing errored packet 110755 at time 4392
Additional hops: 2602
Adding flit 111332 as NACK at time 4399
Reenqueueing errored packet 111615 at time 4400
Additional hops: 2613
Adding flit 111438 as NACK at time 4409
Additional hops: 2621
Adding flit 111738 as NACK at time 4412
Reenqueueing errored packet 111332 at time 4420
Additional hops: 2629
Adding flit 112231 as NACK at time 4428
Reenqueueing errored packet 111738 at time 4429
Reenqueueing errored packet 111438 at time 4432
Additional hops: 2631
Adding flit 113046 as NACK at time 4444
Reenqueueing errored packet 112231 at time 4445
Reenqueueing errored packet 113046 at time 4449
Additional hops: 2636
Adding flit 113005 as NACK at time 4456
Reenqueueing errored packet 113005 at time 4467
Additional hops: 2643
Adding flit 113383 as NACK at time 4473
Additional hops: 2646
Adding flit 113805 as NACK at time 4473
Additional hops: 2657
Adding flit 113063 as NACK at time 4479
Reenqueueing errored packet 113805 at time 4480
Additional hops: 2667
Adding flit 113163 as NACK at time 4480
Additional hops: 2678
Adding flit 113456 as NACK at time 4485
Reenqueueing errored packet 113383 at time 4488
Additional hops: 2686
Adding flit 113878 as NACK at time 4493
Reenqueueing errored packet 113163 at time 4501
Reenqueueing errored packet 113063 at time 4502
Reenqueueing errored packet 113456 at time 4508
Reenqueueing errored packet 113878 at time 4510
Additional hops: 2692
Adding flit 114533 as NACK at time 4516
Additional hops: 2701
Adding flit 114508 as NACK at time 4522
Reenqueueing errored packet 114533 at time 4529
Reenqueueing errored packet 114508 at time 4541
Additional hops: 2711
Adding flit 115000 as NACK at time 4547
Additional hops: 2718
Adding flit 115324 as NACK at time 4552
Reenqueueing errored packet 115324 at time 4567
Reenqueueing errored packet 115000 at time 4568
Additional hops: 2723
Adding flit 116066 as NACK at time 4572
Additional hops: 2732
Adding flit 115939 as NACK at time 4581
Reenqueueing errored packet 116066 at time 4583
Additional hops: 2738
Adding flit 116184 as NACK at time 4583
Additional hops: 2746
Adding flit 116037 as NACK at time 4584
Reenqueueing errored packet 116184 at time 4596
Reenqueueing errored packet 115939 at time 4600
Reenqueueing errored packet 116037 at time 4601
Additional hops: 2752
Adding flit 116830 as NACK at time 4605
Reenqueueing errored packet 116830 at time 4618
Additional hops: 2763
Adding flit 116997 as NACK at time 4628
Additional hops: 2768
Adding flit 117807 as NACK at time 4642
Reenqueueing errored packet 116997 at time 4651
Additional hops: 2778
Adding flit 117751 as NACK at time 4652
Reenqueueing errored packet 117807 at time 4653
Additional hops: 2787
Adding flit 117926 as NACK at time 4658
Reenqueueing errored packet 117751 at time 4673
Additional hops: 2795
Adding flit 118486 as NACK at time 4676
Reenqueueing errored packet 117926 at time 4677
Reenqueueing errored packet 118486 at time 4693
Additional hops: 2798
Adding flit 119613 as NACK at time 4706
Reenqueueing errored packet 119613 at time 4713
Additional hops: 2805
Adding flit 119424 as NACK at time 4717
Additional hops: 2818
Adding flit 119045 as NACK at time 4718
Additional hops: 2827
Adding flit 119417 as NACK at time 4722
Additional hops: 2838
Adding flit 119565 as NACK at time 4728
Additional hops: 2845
Adding flit 119921 as NACK at time 4729
Reenqueueing errored packet 119424 at time 4732
Reenqueueing errored packet 119417 at time 4741
Additional hops: 2855
Adding flit 119939 as NACK at time 4742
Reenqueueing errored packet 119921 at time 4744
Reenqueueing errored packet 119045 at time 4745
Reenqueueing errored packet 119565 at time 4751
Additional hops: 2864
Adding flit 120186 as NACK at time 4751
Additional hops: 2872
Adding flit 120545 as NACK at time 4756
Reenqueueing errored packet 119939 at time 4763
Reenqueueing errored packet 120186 at time 4770
Reenqueueing errored packet 120545 at time 4773
Additional hops: 2878
Adding flit 121456 as NACK at time 4789
Additional hops: 2888
Adding flit 121176 as NACK at time 4792
Additional hops: 2893
Adding flit 121635 as NACK at time 4792
Additional hops: 2901
Adding flit 121435 as NACK at time 4793
Additional hops: 2907
Adding flit 121828 as NACK at time 4801
Reenqueueing errored packet 121456 at time 4802
Additional hops: 2911
Adding flit 122040 as NACK at time 4802
Reenqueueing errored packet 121635 at time 4803
Additional hops: 2917
Adding flit 121939 as NACK at time 4806
Additional hops: 2931
Adding flit 121228 as NACK at time 4806
Reenqueueing errored packet 121435 at time 4810
Reenqueueing errored packet 122040 at time 4811
Reenqueueing errored packet 121176 at time 4813
Reenqueueing errored packet 121828 at time 4814
Reenqueueing errored packet 121939 at time 4819
Additional hops: 2939
Adding flit 122167 as NACK at time 4819
Reenqueueing errored packet 121228 at time 4835
Reenqueueing errored packet 122167 at time 4836
Additional hops: 2948
Adding flit 122692 as NACK at time 4844
Additional hops: 2959
Adding flit 122535 as NACK at time 4850
Additional hops: 2963
Adding flit 123340 as NACK at time 4853
Additional hops: 2967
Adding flit 123318 as NACK at time 4855
Additional hops: 2977
Adding flit 122981 as NACK at time 4858
Reenqueueing errored packet 123340 at time 4862
Reenqueueing errored packet 122692 at time 4863
Reenqueueing errored packet 123318 at time 4864
Reenqueueing errored packet 122535 at time 4873
Additional hops: 2985
Adding flit 123539 as NACK at time 4874
Reenqueueing errored packet 122981 at time 4879
Additional hops: 2998
Adding flit 123390 as NACK at time 4887
Reenqueueing errored packet 123539 at time 4891
Additional hops: 3003
Adding flit 124636 as NACK at time 4908
Reenqueueing errored packet 123390 at time 4914
Reenqueueing errored packet 124636 at time 4919
Additional hops: 3010
Adding flit 126025 as NACK at time 4968
Reenqueueing errored packet 126025 at time 4983
Additional hops: 3017
Adding flit 126645 as NACK at time 4991
Reenqueueing errored packet 126645 at time 5006
Additional hops: 3024
Adding flit 126962 as NACK at time 5007
Additional hops: 3033
Adding flit 126939 as NACK at time 5011
Additional hops: 3042
Adding flit 127067 as NACK at time 5012
Reenqueueing errored packet 126962 at time 5022
Additional hops: 3051
Adding flit 127332 as NACK at time 5027
Reenqueueing errored packet 126939 at time 5030
Reenqueueing errored packet 127067 at time 5031
Additional hops: 3057
Adding flit 127825 as NACK at time 5039
Reenqueueing errored packet 127332 at time 5046
Additional hops: 3066
Adding flit 127837 as NACK at time 5046
Reenqueueing errored packet 127825 at time 5052
Additional hops: 3075
Adding flit 128117 as NACK at time 5059
Reenqueueing errored packet 127837 at time 5065
Additional hops: 3078
Adding flit 129184 as NACK at time 5076
Reenqueueing errored packet 128117 at time 5078
Additional hops: 3091
Adding flit 128398 as NACK at time 5080
Additional hops: 3097
Adding flit 129032 as NACK at time 5082
Reenqueueing errored packet 129184 at time 5083
Additional hops: 3105
Adding flit 128934 as NACK at time 5088
Additional hops: 3110
Adding flit 129311 as NACK at time 5090
Reenqueueing errored packet 129032 at time 5095
Reenqueueing errored packet 129311 at time 5101
Reenqueueing errored packet 128934 at time 5105
Reenqueueing errored packet 128398 at time 5107
Additional hops: 3122
Adding flit 129129 as NACK at time 5107
Additional hops: 3127
Adding flit 130185 as NACK at time 5127
Reenqueueing errored packet 129129 at time 5132
Additional hops: 3133
Adding flit 130339 as NACK at time 5135
Reenqueueing errored packet 130185 at time 5138
Reenqueueing errored packet 130339 at time 5148
Additional hops: 3137
Adding flit 131264 as NACK at time 5162
Additional hops: 3140
Adding flit 131409 as NACK at time 5163
Additional hops: 3146
Adding flit 131175 as NACK at time 5163
Additional hops: 3154
Adding flit 130995 as NACK at time 5166
Reenqueueing errored packet 131409 at time 5170
Reenqueueing errored packet 131264 at time 5171
Reenqueueing errored packet 131175 at time 5176
Additional hops: 3163
Adding flit 131245 as NACK at time 5177
Reenqueueing errored packet 130995 at time 5183
Additional hops: 3172
Adding flit 131398 as NACK at time 5187
Reenqueueing errored packet 131245 at time 5196
Additional hops: 3177
Adding flit 131985 as NACK at time 5196
Reenqueueing errored packet 131398 at time 5206
Reenqueueing errored packet 131985 at time 5207
Additional hops: 3186
Adding flit 132245 as NACK at time 5218
Additional hops: 3194
Adding flit 132244 as NACK at time 5218
Additional hops: 3204
Adding flit 131758 as NACK at time 5222
Additional hops: 3211
Adding flit 132554 as NACK at time 5222
Additional hops: 3215
Adding flit 132845 as NACK at time 5225
Reenqueueing errored packet 132845 at time 5234
Reenqueueing errored packet 132244 at time 5235
Reenqueueing errored packet 132554 at time 5237
Reenqueueing errored packet 132245 at time 5237
Additional hops: 3220
Adding flit 133185 as NACK at time 5240
Reenqueueing errored packet 131758 at time 5243
Additional hops: 3227
Adding flit 133060 as NACK at time 5243
Additional hops: 3238
Adding flit 132769 as NACK at time 5247
Reenqueueing errored packet 133185 at time 5251
Additional hops: 3246
Adding flit 133223 as NACK at time 5251
Reenqueueing errored packet 133060 at time 5258
Additional hops: 3253
Adding flit 133584 as NACK at time 5261
Additional hops: 3259
Adding flit 133658 as NACK at time 5267
Reenqueueing errored packet 133223 at time 5268
Reenqueueing errored packet 132769 at time 5270
Reenqueueing errored packet 133584 at time 5276
Additional hops: 3266
Adding flit 133882 as NACK at time 5276
Reenqueueing errored packet 133658 at time 5280
Reenqueueing errored packet 133882 at time 5291
Additional hops: 3272
Adding flit 134597 as NACK at time 5306
Additional hops: 3279
Adding flit 134766 as NACK at time 5309
Additional hops: 3287
Adding flit 134754 as NACK at time 5311
Additional hops: 3297
Adding flit 134439 as NACK at time 5313
Additional hops: 3302
Adding flit 135033 as NACK at time 5314
Reenqueueing errored packet 134597 at time 5319
Reenqueueing errored packet 134766 at time 5324
Reenqueueing errored packet 135033 at time 5325
Reenqueueing errored packet 134754 at time 5328
Reenqueueing errored packet 134439 at time 5334
Additional hops: 3307
Adding flit 136248 as NACK at time 5362
Uncorrectable 3
Additional hops: 3318
Adding flit 135574 as NACK at time 5364
Uncorrectable 3
Additional hops: 3325
Adding flit 136074 as NACK at time 5367
Reenqueueing errored packet 136248 at time 5373
Additional hops: 3334
Adding flit 136239 as NACK at time 5377
Reenqueueing errored packet 136074 at time 5382
Additional hops: 3344
Adding flit 136420 as NACK at time 5384
Reenqueueing errored packet 135574 at time 5387
Reenqueueing errored packet 136239 at time 5396
Additional hops: 3355
Adding flit 136641 as NACK at time 5399
Reenqueueing errored packet 136420 at time 5405
Additional hops: 3361
Adding flit 137449 as NACK at time 5413
Reenqueueing errored packet 136641 at time 5422
Reenqueueing errored packet 137449 at time 5426
Additional hops: 3368
Adding flit 137522 as NACK at time 5430
Reenqueueing errored packet 137522 at time 5445
Additional hops: 3377
Adding flit 138042 as NACK at time 5447
Additional hops: 3385
Adding flit 138255 as NACK at time 5452
Additional hops: 3396
Adding flit 138358 as NACK at time 5463
Reenqueueing errored packet 138042 at time 5466
Additional hops: 3403
Adding flit 138753 as NACK at time 5467
Reenqueueing errored packet 138255 at time 5469
Additional hops: 3410
Adding flit 138848 as NACK at time 5470
Reenqueueing errored packet 138753 at time 5482
Reenqueueing errored packet 138848 at time 5485
Reenqueueing errored packet 138358 at time 5486
Additional hops: 3420
Adding flit 138948 as NACK at time 5486
Additional hops: 3429
Adding flit 139047 as NACK at time 5488
Additional hops: 3432
Adding flit 139987 as NACK at time 5501
Additional hops: 3440
Adding flit 139628 as NACK at time 5506
Reenqueueing errored packet 139047 at time 5507
Reenqueueing errored packet 138948 at time 5507
Reenqueueing errored packet 139987 at time 5508
Additional hops: 3446
Adding flit 140084 as NACK at time 5518
Reenqueueing errored packet 139628 at time 5523
Reenqueueing errored packet 140084 at time 5531
Additional hops: 3457
Adding flit 140427 as NACK at time 5544
Additional hops: 3466
Adding flit 140640 as NACK at time 5547
Additional hops: 3477
Adding flit 140654 as NACK at time 5553
Additional hops: 3482
Adding flit 141349 as NACK at time 5559
Reenqueueing errored packet 140640 at time 5566
Reenqueueing errored packet 140427 at time 5567
Reenqueueing errored packet 141349 at time 5570
Reenqueueing errored packet 140654 at time 5576
Additional hops: 3484
Adding flit 142048 as NACK at time 5577
Reenqueueing errored packet 142048 at time 5582
Additional hops: 3490
Adding flit 142138 as NACK at time 5596
Additional hops: 3500
Adding flit 142062 as NACK at time 5603
Additional hops: 3508
Adding flit 142131 as NACK at time 5603
Reenqueueing errored packet 142138 at time 5609
Reenqueueing errored packet 142131 at time 5620
Additional hops: 3511
Adding flit 143122 as NACK at time 5623
Reenqueueing errored packet 142062 at time 5624
Reenqueueing errored packet 143122 at time 5630
Additional hops: 3516
Adding flit 144219 as NACK at time 5675
Reenqueueing errored packet 144219 at time 5686
Additional hops: 3529
Adding flit 144014 as NACK at time 5692
Additional hops: 3539
Adding flit 144289 as NACK at time 5698
Additional hops: 3544
Adding flit 144896 as NACK at time 5700
Additional hops: 3557
Adding flit 144272 as NACK at time 5707
Reenqueueing errored packet 144896 at time 5711
Reenqueueing errored packet 144289 at time 5719
Reenqueueing errored packet 144014 at time 5719
Reenqueueing errored packet 144272 at time 5734
Additional hops: 3564
Adding flit 145577 as NACK at time 5734
Additional hops: 3571
Adding flit 145588 as NACK at time 5734
Additional hops: 3579
Adding flit 145770 as NACK at time 5748
Reenqueueing errored packet 145588 at time 5749
Reenqueueing errored packet 145577 at time 5749
Reenqueueing errored packet 145770 at time 5765
Additional hops: 3590
Adding flit 146284 as NACK at time 5776
Additional hops: 3600
Adding flit 146533 as NACK at time 5783
Reenqueueing errored packet 146284 at time 5799
Reenqueueing errored packet 146533 at time 5804
Additional hops: 3611
Adding flit 146852 as NACK at time 5807
Additional hops: 3625
Adding flit 147266 as NACK at time 5823
Reenqueueing errored packet 146852 at time 5830
Additional hops: 3632
Adding flit 148191 as NACK at time 5837
Reenqueueing errored packet 148191 at time 5852
Reenqueueing errored packet 147266 at time 5852
Additional hops: 3638
Adding flit 148684 as NACK at time 5852
Reenqueueing errored packet 148684 at time 5865
Additional hops: 3646
Adding flit 149191 as NACK at time 5879
Additional hops: 3655
Adding flit 149171 as NACK at time 5880
Additional hops: 3663
Adding flit 149279 as NACK at time 5883
Reenqueueing errored packet 149191 at time 5896
Reenqueueing errored packet 149171 at time 5899
Reenqueueing errored packet 149279 at time 5900
Additional hops: 3672
Adding flit 149658 as NACK at time 5903
Additional hops: 3677
Adding flit 150486 as NACK at time 5919
Additional hops: 3687
Adding flit 150035 as NACK at time 5921
Reenqueueing errored packet 149658 at time 5922
Reenqueueing errored packet 150486 at time 5930
Additional hops: 3697
Adding flit 150362 as NACK at time 5936
Additional hops: 3705
Adding flit 150779 as NACK at time 5941
Reenqueueing errored packet 150035 at time 5942
Additional hops: 3711
Adding flit 150846 as NACK at time 5942
Reenqueueing errored packet 150846 at time 5955
Reenqueueing errored packet 150362 at time 5957
Reenqueueing errored packet 150779 at time 5958
Additional hops: 3718
Adding flit 151499 as NACK at time 5965
Reenqueueing errored packet 151499 at time 5980
Additional hops: 3729
Adding flit 151491 as NACK at time 5982
Additional hops: 3737
Adding flit 151994 as NACK at time 5996
Reenqueueing errored packet 151491 at time 6005
Reenqueueing errored packet 151994 at time 6013
Additional hops: 3745
Adding flit 152792 as NACK at time 6020
Reenqueueing errored packet 152792 at time 6037
Additional hops: 3752
Adding flit 153169 as NACK at time 6040
Additional hops: 3763
Adding flit 153098 as NACK at time 6047
Additional hops: 3771
Adding flit 153533 as NACK at time 6047
Additional hops: 3779
Adding flit 153382 as NACK at time 6050
Additional hops: 3792
Adding flit 153151 as NACK at time 6054
Reenqueueing errored packet 153169 at time 6055
Reenqueueing errored packet 153533 at time 6064
Reenqueueing errored packet 153382 at time 6067
Reenqueueing errored packet 153098 at time 6070
Additional hops: 3796
Adding flit 154456 as NACK at time 6076
Additional hops: 3801
Adding flit 154515 as NACK at time 6080
Reenqueueing errored packet 153151 at time 6081
Reenqueueing errored packet 154456 at time 6085
Reenqueueing errored packet 154515 at time 6091
Additional hops: 3810
Adding flit 154672 as NACK at time 6098
Additional hops: 3819
Adding flit 154591 as NACK at time 6101
Additional hops: 3824
Adding flit 155316 as NACK at time 6112
Reenqueueing errored packet 154672 at time 6117
Reenqueueing errored packet 154591 at time 6120
Reenqueueing errored packet 155316 at time 6123
Additional hops: 3830
Adding flit 155909 as NACK at time 6137
Additional hops: 3838
Adding flit 155851 as NACK at time 6138
Reenqueueing errored packet 155909 at time 6150
Reenqueueing errored packet 155851 at time 6155
Additional hops: 3856
Adding flit 154591 as NACK at time 6161
Additional hops: 3870
Adding flit 155746 as NACK at time 6163
Additional hops: 3878
Adding flit 156876 as NACK at time 6184
Reenqueueing errored packet 155746 at time 6192
Reenqueueing errored packet 154591 at time 6198
Reenqueueing errored packet 156876 at time 6201
Additional hops: 3885
Adding flit 157461 as NACK at time 6202
Additional hops: 3892
Adding flit 157602 as NACK at time 6206
Additional hops: 3901
Adding flit 157586 as NACK at time 6212
Additional hops: 3907
Adding flit 157904 as NACK at time 6215
Reenqueueing errored packet 157461 at time 6217
Reenqueueing errored packet 157602 at time 6221
Reenqueueing errored packet 157904 at time 6228
Reenqueueing errored packet 157586 at time 6231
Additional hops: 3916
Adding flit 157868 as NACK at time 6232
Additional hops: 3926
Adding flit 157911 as NACK at time 6235
Additional hops: 3937
Adding flit 157766 as NACK at time 6237
Additional hops: 3945
Adding flit 158274 as NACK at time 6243
Additional hops: 3949
Adding flit 158837 as NACK at time 6248
Reenqueueing errored packet 157868 at time 6251
Reenqueueing errored packet 157911 at time 6256
Reenqueueing errored packet 158837 at time 6257
Reenqueueing errored packet 158274 at time 6260
Reenqueueing errored packet 157766 at time 6260
Additional hops: 3957
Adding flit 159187 as NACK at time 6272
Additional hops: 3968
Adding flit 158777 as NACK at time 6272
Reenqueueing errored packet 159187 at time 6289
Reenqueueing errored packet 158777 at time 6295
Additional hops: 3976
Adding flit 159857 as NACK at time 6297
Additional hops: 3984
Adding flit 159882 as NACK at time 6312
Reenqueueing errored packet 159857 at time 6314
Reenqueueing errored packet 159882 at time 6329
Additional hops: 3989
Adding flit 160970 as NACK at time 6330
Additional hops: 3997
Adding flit 160716 as NACK at time 6331
Additional hops: 4002
Adding flit 161186 as NACK at time 6336
Additional hops: 4012
Adding flit 160866 as NACK at time 6339
Reenqueueing errored packet 160970 at time 6341
Reenqueueing errored packet 161186 at time 6347
Reenqueueing errored packet 160716 at time 6348
Additional hops: 4023
Adding flit 160918 as NACK at time 6356
Reenqueueing errored packet 160866 at time 6360
Additional hops: 4029
Adding flit 161917 as NACK at time 6368
Additional hops: 4035
Adding flit 162130 as NACK at time 6378
Reenqueueing errored packet 160918 at time 6379
Reenqueueing errored packet 161917 at time 6381
Reenqueueing errored packet 162130 at time 6391
Additional hops: 4043
Adding flit 162459 as NACK at time 6397
Additional hops: 4049
Adding flit 162711 as NACK at time 6400
Additional hops: 4055
Adding flit 162648 as NACK at time 6400
Additional hops: 4065
Adding flit 162760 as NACK at time 6411
Reenqueueing errored packet 162648 at time 6413
Reenqueueing errored packet 162711 at time 6413
Reenqueueing errored packet 162459 at time 6414
Uncorrectable 3
Additional hops: 4073
Adding flit 162974 as NACK at time 6414
Additional hops: 4078
Adding flit 163586 as NACK at time 6430
Reenqueueing errored packet 162974 at time 6431
Reenqueueing errored packet 162760 at time 6432
Reenqueueing errored packet 163586 at time 6441
Additional hops: 4088
Adding flit 163643 as NACK at time 6446
Reenqueueing errored packet 163643 at time 6467
Additional hops: 4092
Adding flit 164683 as NACK at time 6473
Reenqueueing errored packet 164683 at time 6482
Additional hops: 4102
Adding flit 164524 as NACK at time 6482
Reenqueueing errored packet 164524 at time 6503
Additional hops: 4107
Adding flit 166993 as NACK at time 6561
Additional hops: 4118
Adding flit 166493 as NACK at time 6569
Reenqueueing errored packet 166993 at time 6572
Additional hops: 4128
Adding flit 166998 as NACK at time 6579
Reenqueueing errored packet 166493 at time 6592
Reenqueueing errored packet 166998 at time 6600
Additional hops: 4134
Adding flit 167913 as NACK at time 6601
Additional hops: 4139
Adding flit 168161 as NACK at time 6606
Reenqueueing errored packet 167913 at time 6614
Reenqueueing errored packet 168161 at time 6617
Additional hops: 4147
Adding flit 168138 as NACK at time 6620
Additional hops: 4153
Adding flit 168352 as NACK at time 6620
Additional hops: 4166
Adding flit 167994 as NACK at time 6627
Additional hops: 4178
Adding flit 168014 as NACK at time 6629
Reenqueueing errored packet 168352 at time 6633
Reenqueueing errored packet 168138 at time 6637
Additional hops: 4185
Adding flit 168761 as NACK at time 6638
Reenqueueing errored packet 168761 at time 6653
Reenqueueing errored packet 168014 at time 6654
Reenqueueing errored packet 167994 at time 6654
Additional hops: 4192
Adding flit 169145 as NACK at time 6654
Additional hops: 4207
Adding flit 168502 as NACK at time 6662
Reenqueueing errored packet 169145 at time 6669
Additional hops: 4216
Adding flit 169549 as NACK at time 6673
Additional hops: 4227
Adding flit 169672 as NACK at time 6683
Additional hops: 4240
Adding flit 169610 as NACK at time 6686
Reenqueueing errored packet 169549 at time 6692
Additional hops: 4243
Adding flit 170558 as NACK at time 6692
Reenqueueing errored packet 168502 at time 6693
Reenqueueing errored packet 170558 at time 6699
Additional hops: 4252
Adding flit 170142 as NACK at time 6704
Reenqueueing errored packet 169672 at time 6706
Additional hops: 4262
Adding flit 170450 as NACK at time 6711
Additional hops: 4273
Adding flit 170355 as NACK at time 6712
Reenqueueing errored packet 169610 at time 6713
Additional hops: 4281
Adding flit 170738 as NACK at time 6715
Additional hops: 4287
Adding flit 171004 as NACK at time 6718
Additional hops: 4293
Adding flit 170886 as NACK at time 6720
Additional hops: 4299
Adding flit 170980 as NACK at time 6722
Reenqueueing errored packet 170142 at time 6723
Additional hops: 4306
Adding flit 171218 as NACK at time 6729
Additional hops: 4312
Adding flit 171136 as NACK at time 6730
Reenqueueing errored packet 171004 at time 6731
Reenqueueing errored packet 170738 at time 6732
Reenqueueing errored packet 170450 at time 6732
Reenqueueing errored packet 170886 at time 6733
Reenqueueing errored packet 170980 at time 6735
Reenqueueing errored packet 170355 at time 6735
Additional hops: 4320
Adding flit 171420 as NACK at time 6741
Reenqueueing errored packet 171136 at time 6743
Reenqueueing errored packet 171218 at time 6744
Additional hops: 4328
Adding flit 171463 as NACK at time 6747
Additional hops: 4337
Adding flit 171631 as NACK at time 6757
Reenqueueing errored packet 171420 at time 6758
Reenqueueing errored packet 171463 at time 6764
Additional hops: 4343
Adding flit 172274 as NACK at time 6767
Reenqueueing errored packet 171631 at time 6776
Reenqueueing errored packet 172274 at time 6780
Additional hops: 4355
Adding flit 171734 as NACK at time 6787
Additional hops: 4364
Adding flit 172623 as NACK at time 6791
Additional hops: 4371
Adding flit 172837 as NACK at time 6791
Additional hops: 4378
Adding flit 172749 as NACK at time 6794
Additional hops: 4391
Adding flit 172621 as NACK at time 6800
Reenqueueing errored packet 172837 at time 6806
Reenqueueing errored packet 172749 at time 6809
Reenqueueing errored packet 172623 at time 6810
Additional hops: 4399
Adding flit 173282 as NACK at time 6810
Reenqueueing errored packet 171734 at time 6812
Additional hops: 4404
Adding flit 173753 as NACK at time 6823
Additional hops: 4409
Adding flit 173835 as NACK at time 6824
Additional hops: 4419
Adding flit 173394 as NACK at time 6825
Reenqueueing errored packet 173282 at time 6827
Reenqueueing errored packet 172621 at time 6827
Reenqueueing errored packet 173753 at time 6834
Reenqueueing errored packet 173835 at time 6835
Reenqueueing errored packet 173394 at time 6846
Additional hops: 4430
Adding flit 173749 as NACK at time 6853
Additional hops: 4437
Adding flit 174620 as NACK at time 6861
Reenqueueing errored packet 174620 at time 6876
Reenqueueing errored packet 173749 at time 6876
Additional hops: 4443
Adding flit 174971 as NACK at time 6877
Reenqueueing errored packet 174971 at time 6890
Additional hops: 4457
Adding flit 174844 as NACK at time 6894
Additional hops: 4465
Adding flit 175645 as NACK at time 6908
Additional hops: 4469
Adding flit 175833 as NACK at time 6912
Reenqueueing errored packet 175833 at time 6921
Additional hops: 4475
Adding flit 176292 as NACK at time 6922
Reenqueueing errored packet 174844 at time 6923
Reenqueueing errored packet 175645 at time 6925
Additional hops: 4480
Adding flit 176471 as NACK at time 6929
Reenqueueing errored packet 176292 at time 6935
Additional hops: 4490
Adding flit 176373 as NACK at time 6939
Reenqueueing errored packet 176471 at time 6940
Additional hops: 4497
Adding flit 176717 as NACK at time 6942
Reenqueueing errored packet 176717 at time 6957
Additional hops: 4504
Adding flit 177123 as NACK at time 6958
Reenqueueing errored packet 176373 at time 6960
Additional hops: 4512
Adding flit 177302 as NACK at time 6969
Reenqueueing errored packet 177123 at time 6973
Uncorrectable 3
Additional hops: 4518
Adding flit 177559 as NACK at time 6974
Reenqueueing errored packet 177302 at time 6986
Reenqueueing errored packet 177559 at time 6987
Additional hops: 4525
Adding flit 178037 as NACK at time 6996
Additional hops: 4534
Adding flit 177974 as NACK at time 6999
Additional hops: 4542
Adding flit 178158 as NACK at time 7006
Additional hops: 4547
Adding flit 178480 as NACK at time 7006
Reenqueueing errored packet 178037 at time 7011
Reenqueueing errored packet 178480 at time 7017
Reenqueueing errored packet 177974 at time 7018
Reenqueueing errored packet 178158 at time 7023
Additional hops: 4550
Adding flit 179672 as NACK at time 7045
Reenqueueing errored packet 179672 at time 7052
Additional hops: 4563
Adding flit 179664 as NACK at time 7078
Additional hops: 4569
Adding flit 180698 as NACK at time 7097
Additional hops: 4574
Adding flit 180828 as NACK at time 7098
Reenqueueing errored packet 179664 at time 7105
Additional hops: 4585
Adding flit 180404 as NACK at time 7107
Reenqueueing errored packet 180828 at time 7109
Reenqueueing errored packet 180698 at time 7110
Additional hops: 4597
Adding flit 180671 as NACK at time 7113
Additional hops: 4608
Adding flit 180905 as NACK at time 7123
Reenqueueing errored packet 180404 at time 7130
Additional hops: 4619
Adding flit 181126 as NACK at time 7130
Reenqueueing errored packet 180671 at time 7138
Reenqueueing errored packet 180905 at time 7146
Reenqueueing errored packet 181126 at time 7153
Additional hops: 4627
Adding flit 182220 as NACK at time 7159
Additional hops: 4638
Adding flit 182010 as NACK at time 7170
Reenqueueing errored packet 182220 at time 7176
Additional hops: 4645
Adding flit 182890 as NACK at time 7183
Additional hops: 4658
Adding flit 182567 as NACK at time 7188
Additional hops: 4666
Adding flit 183011 as NACK at time 7189
Reenqueueing errored packet 182010 at time 7193
Additional hops: 4672
Adding flit 183308 as NACK at time 7196
Reenqueueing errored packet 182890 at time 7198
Uncorrectable 3
Additional hops: 4677
Adding flit 183530 as NACK at time 7204
Reenqueueing errored packet 183011 at time 7206
Reenqueueing errored packet 183308 at time 7209
Additional hops: 4688
Adding flit 183331 as NACK at time 7213
Reenqueueing errored packet 183530 at time 7215
Reenqueueing errored packet 182567 at time 7215
Additional hops: 4695
Adding flit 183804 as NACK at time 7223
Additional hops: 4700
Adding flit 184248 as NACK at time 7232
Reenqueueing errored packet 183331 at time 7236
Reenqueueing errored packet 183804 at time 7238
Additional hops: 4710
Adding flit 184008 as NACK at time 7238
Reenqueueing errored packet 184248 at time 7243
Additional hops: 4718
Adding flit 184295 as NACK at time 7244
Additional hops: 4724
Adding flit 184840 as NACK at time 7257
Reenqueueing errored packet 184008 at time 7259
Reenqueueing errored packet 184295 at time 7261
Additional hops: 4732
Adding flit 184945 as NACK at time 7265
Reenqueueing errored packet 184840 at time 7270
Additional hops: 4740
Adding flit 184946 as NACK at time 7273
Additional hops: 4747
Adding flit 185301 as NACK at time 7276
Reenqueueing errored packet 184945 at time 7282
Reenqueueing errored packet 184946 at time 7290
Reenqueueing errored packet 185301 at time 7291
Additional hops: 4754
Adding flit 185585 as NACK at time 7293
Additional hops: 4760
Adding flit 185876 as NACK at time 7297
Additional hops: 4767
Adding flit 186033 as NACK at time 7307
Reenqueueing errored packet 185585 at time 7308
Reenqueueing errored packet 185876 at time 7310
Additional hops: 4776
Adding flit 186025 as NACK at time 7312
Reenqueueing errored packet 186033 at time 7322
Uncorrectable 3
Additional hops: 4785
Adding flit 186484 as NACK at time 7328
Reenqueueing errored packet 186025 at time 7331
Additional hops: 4790
Adding flit 187157 as NACK at time 7342
Reenqueueing errored packet 186484 at time 7347
Reenqueueing errored packet 187157 at time 7353
Additional hops: 4796
Adding flit 187649 as NACK at time 7372
Additional hops: 4805
Adding flit 187519 as NACK at time 7373
Additional hops: 4812
Adding flit 187927 as NACK at time 7376
Additional hops: 4821
Adding flit 187674 as NACK at time 7384
Additional hops: 4827
Adding flit 188042 as NACK at time 7384
Reenqueueing errored packet 187649 at time 7385
Additional hops: 4831
Adding flit 188400 as NACK at time 7386
Reenqueueing errored packet 187927 at time 7391
Reenqueueing errored packet 187519 at time 7392
Additional hops: 4841
Adding flit 187811 as NACK at time 7393
Reenqueueing errored packet 188400 at time 7395
Reenqueueing errored packet 188042 at time 7397
Additional hops: 4850
Adding flit 188166 as NACK at time 7400
Reenqueueing errored packet 187674 at time 7403
Reenqueueing errored packet 187811 at time 7414
Additional hops: 4863
Adding flit 188022 as NACK at time 7416
Reenqueueing errored packet 188166 at time 7419
Additional hops: 4872
Adding flit 189136 as NACK at time 7431
Additional hops: 4881
Adding flit 189290 as NACK at time 7439
Reenqueueing errored packet 188022 at time 7443
Additional hops: 4888
Adding flit 189408 as NACK at time 7448
Reenqueueing errored packet 189136 at time 7450
Additional hops: 4892
Adding flit 190038 as NACK at time 7454
Reenqueueing errored packet 189290 at time 7458
Reenqueueing errored packet 190038 at time 7463
Reenqueueing errored packet 189408 at time 7463
Additional hops: 4899
Adding flit 190585 as NACK at time 7486
Reenqueueing errored packet 190585 at time 7501
Additional hops: 4903
Adding flit 191464 as NACK at time 7509
7516 | node13 | Enqueuing flit 192022 (packet 192022) at time 7516.
7516 | traffic_manager | Finding output VC for flit 192022:
7516 | traffic_manager |   Selected output VC 0.
7516 | network_0/router_1_5 | Adding VC range [0,1] at output port 1 for flit 192022 (input port 4, destination 44).
7516 | node13 | Generating lookahead routing info for flit 192022.
7516 | node13 | Injecting flit 192022 into subnet 0 at time 7516 with priority 0.
7517 | network_0/network_0_fchan_ingress13 | Beginning channel traversal for flit 192022 with delay 1.
7517 | network_0/network_0_fchan_ingress13 | Completed channel traversal for flit 192022.
7518 | network_0/router_1_5 | Received flit 192022 from channel at input 4.
Reenqueueing errored packet 191464 at time 7518
Additional hops: 4908
Adding flit 191575 as NACK at time 7518
7518 | network_0/router_1_5 | Adding flit 192022 to VC 0 at input 4 (state: idle, empty).
7518 | network_0/router_1_5 | Using precomputed lookahead routing information for VC 0 at input 4 (front: 192022).
7518 | network_0/router_1_5/buf_4/vc_0 | Changing state from idle to vc_alloc.
7518 | network_0/router_1_5 | Beginning VC allocation for VC 0 at input 4 (front: 192022).
7518 | network_0/router_1_5 |   Requesting VC 0 at output 1 (in_pri: 0, out_pri: 0).
7518 | network_0/router_1_5 |   Requesting VC 1 at output 1 (in_pri: 0, out_pri: 0).
7518 | network_0/router_1_5/vc_allocator | Input requests = [ 8 -> [ 2@0 3@0 ]  ], output requests = [ 2 -> [ 8@0 ]  3 -> [ 8@0 ]  ].
7518 | network_0/router_1_5/vc_allocator | Input grants = [ 8 -> 2  ], output grants = [ 2 -> 8  ].
7518 | network_0/router_1_5 | Assigning VC 0 at output 1 to VC 0 at input 4.
7518 | network_0/router_1_5 | Completed VC allocation for VC 0 at input 4 (front: 192022).
7518 | network_0/router_1_5 |   Acquiring assigned VC 0 at output 1.
7518 | network_0/router_1_5/buf_4/vc_0 | Changing state from vc_alloc to active.
7518 | network_0/router_1_5 | Beginning switch allocation for VC 0 at input 4 (front: 192022).
7518 | network_0/router_1_5 |   Requesting output 1.0 (non-spec, pri: 0).
7518 | network_0/router_1_5/sw_allocator | Input requests = [ 4 -> [ 1@0 ]  ], output requests = [ 1 -> [ 4@0 ]  ].
7518 | network_0/router_1_5/sw_allocator | Input grants = [ 4 -> 1  ], output grants = [ 1 -> 4  ].
7518 | network_0/router_1_5 | Assigning output 1.0 to VC 0 at input 4.0.
7518 | network_0/router_1_5 | Completed switch allocation for VC 0 at input 4 (front: 192022).
7518 | network_0/router_1_5 |   Scheduling switch connection from input 4.0 to output 1.0.
7518 | network_0/router_1_5 | Updating lookahead routing information for flit 192022.
7518 | network_0/router_1_4 | Adding VC range [0,1] at output port 2 for flit 192022 (input port 0, destination 44).
7519 | network_0/router_1_5 | Beginning crossbar traversal for flit 192022 from input 4.0 to output 1.0.
7519 | network_0/router_1_5 | Completed crossbar traversal for flit 192022 from input 4.0 to output 1.0.
7519 | network_0/router_1_5 | Buffering flit 192022 at output 1.
7519 | network_0/router_1_5 | Sending flit 192022 to channel at output 1.
7520 | network_0/network_0_fchan_53 | Beginning channel traversal for flit 192022 with delay 1.
7520 | network_0/network_0_fchan_53 | Completed channel traversal for flit 192022.
7521 | network_0/router_1_4 | Received flit 192022 from channel at input 0.
7521 | network_0/router_1_4 | Adding flit 192022 to VC 0 at input 0 (state: idle, empty).
7521 | network_0/router_1_4 | Using precomputed lookahead routing information for VC 0 at input 0 (front: 192022).
7521 | network_0/router_1_4/buf_0/vc_0 | Changing state from idle to vc_alloc.
7521 | network_0/router_1_4 | Beginning VC allocation for VC 0 at input 0 (front: 192022).
7521 | network_0/router_1_4 |   Requesting VC 0 at output 2 (in_pri: 0, out_pri: 0).
7521 | network_0/router_1_4 |   Requesting VC 1 at output 2 (in_pri: 0, out_pri: 0).
7521 | network_0/router_1_4/vc_allocator | Input requests = [ 0 -> [ 4@0 5@0 ]  2 -> [ 0@0 ]  8 -> [ 0@0 ]  ], output requests = [ 0 -> [ 2@0 8@0 ]  4 -> [ 0@0 ]  5 -> [ 0@0 ]  ].
7521 | network_0/router_1_4/vc_allocator | Input grants = [ 0 -> 4  8 -> 0  ], output grants = [ 0 -> 8  4 -> 0  ].
7521 | network_0/router_1_4 | Assigning VC 0 at output 2 to VC 0 at input 0.
7521 | network_0/router_1_4 | Completed VC allocation for VC 0 at input 0 (front: 192022).
7521 | network_0/router_1_4 |   Acquiring assigned VC 0 at output 2.
7521 | network_0/router_1_4/buf_0/vc_0 | Changing state from vc_alloc to active.
7521 | network_0/router_1_4 | Beginning switch allocation for VC 0 at input 0 (front: 192022).
7521 | network_0/router_1_4 |   Requesting output 2.0 (non-spec, pri: 0).
7521 | network_0/router_1_4/sw_allocator | Input requests = [ 0 -> [ 2@0 ]  4 -> [ 0@0 ]  ], output requests = [ 0 -> [ 4@0 ]  2 -> [ 0@0 ]  ].
7521 | network_0/router_1_4/sw_allocator | Input grants = [ 0 -> 2  4 -> 0  ], output grants = [ 0 -> 4  2 -> 0  ].
7521 | network_0/router_1_4 | Assigning output 2.0 to VC 0 at input 0.0.
7521 | network_0/router_1_4 | Completed switch allocation for VC 0 at input 0 (front: 192022).
7521 | network_0/router_1_4 |   Scheduling switch connection from input 0.0 to output 2.0.
7521 | network_0/router_1_4 | Updating lookahead routing information for flit 192022.
7521 | network_0/router_2_4 | Adding VC range [0,1] at output port 2 for flit 192022 (input port 3, destination 44).
7522 | network_0/router_1_4 | Beginning crossbar traversal for flit 192022 from input 0.0 to output 2.0.
7522 | network_0/router_1_4 | Completed crossbar traversal for flit 192022 from input 0.0 to output 2.0.
7522 | network_0/router_1_4 | Buffering flit 192022 at output 2.
7522 | network_0/router_1_4 | Sending flit 192022 to channel at output 2.
7523 | network_0/network_0_fchan_50 | Beginning channel traversal for flit 192022 with delay 1.
7523 | network_0/network_0_fchan_50 | Completed channel traversal for flit 192022.
7524 | network_0/router_2_4 | Received flit 192022 from channel at input 3.
7524 | network_0/router_2_4 | Adding flit 192022 to VC 0 at input 3 (state: active, front: 192071).
7524 | network_0/router_2_4 | Using precomputed lookahead routing information for VC 0 at input 3 (front: 192022).
7524 | network_0/router_2_4/buf_3/vc_0 | Changing state from active to vc_alloc.
7524 | network_0/router_2_4 | Beginning VC allocation for VC 0 at input 3 (front: 192022).
7524 | network_0/router_2_4 |   Requesting VC 0 at output 2 (in_pri: 0, out_pri: 0).
7524 | network_0/router_2_4 |   Requesting VC 1 at output 2 (in_pri: 0, out_pri: 0).
7524 | network_0/router_2_4/vc_allocator | Input requests = [ 6 -> [ 4@0 5@0 ]  8 -> [ 2@0 ]  ], output requests = [ 2 -> [ 8@0 ]  4 -> [ 6@0 ]  5 -> [ 6@0 ]  ].
7524 | network_0/router_2_4/vc_allocator | Input grants = [ 6 -> 4  8 -> 2  ], output grants = [ 2 -> 8  4 -> 6  ].
7524 | network_0/router_2_4 | Assigning VC 0 at output 2 to VC 0 at input 3.
7524 | network_0/router_2_4 | Completed VC allocation for VC 0 at input 3 (front: 192022).
7524 | network_0/router_2_4 |   Acquiring assigned VC 0 at output 2.
7524 | network_0/router_2_4/buf_3/vc_0 | Changing state from vc_alloc to active.
7525 | network_0/router_2_4 | Beginning switch allocation for VC 0 at input 3 (front: 192022).
7525 | network_0/router_2_4 |   Requesting output 2.0 (non-spec, pri: 0).
7525 | network_0/router_2_4/sw_allocator | Input requests = [ 3 -> [ 2@0 ]  4 -> [ 1@0 ]  ], output requests = [ 1 -> [ 4@0 ]  2 -> [ 3@0 ]  ].
7525 | network_0/router_2_4/sw_allocator | Input grants = [ 3 -> 2  4 -> 1  ], output grants = [ 1 -> 4  2 -> 3  ].
7525 | network_0/router_2_4 | Assigning output 2.0 to VC 0 at input 3.0.
7525 | network_0/router_2_4 | Completed switch allocation for VC 0 at input 3 (front: 192022).
7525 | network_0/router_2_4 |   Scheduling switch connection from input 3.0 to output 2.0.
7525 | network_0/router_2_4 | Updating lookahead routing information for flit 192022.
7525 | network_0/router_3_4 | Adding VC range [0,1] at output port 2 for flit 192022 (input port 3, destination 44).
7525 | network_0/router_2_4 | Beginning crossbar traversal for flit 192022 from input 3.0 to output 2.0.
7525 | network_0/router_2_4 | Completed crossbar traversal for flit 192022 from input 3.0 to output 2.0.
7525 | network_0/router_2_4 | Buffering flit 192022 at output 2.
7526 | network_0/router_2_4 | Sending flit 192022 to channel at output 2.
7527 | network_0/network_0_fchan_82 | Beginning channel traversal for flit 192022 with delay 1.
7527 | network_0/network_0_fchan_82 | Completed channel traversal for flit 192022.
7528 | network_0/router_3_4 | Received flit 192022 from channel at input 3.
7528 | network_0/router_3_4 | Adding flit 192022 to VC 0 at input 3 (state: idle, empty).
7528 | network_0/router_3_4 | Using precomputed lookahead routing information for VC 0 at input 3 (front: 192022).
7528 | network_0/router_3_4/buf_3/vc_0 | Changing state from idle to vc_alloc.
7528 | network_0/router_3_4 | Beginning VC allocation for VC 0 at input 3 (front: 192022).
7528 | network_0/router_3_4 |   Requesting VC 0 at output 2 (in_pri: 0, out_pri: 0).
7528 | network_0/router_3_4 |   VC 1 at output 2 is in use by VC 1 at input 0 (front flit: 192030).
7528 | network_0/router_3_4/vc_allocator | Input requests = [ 2 -> [ 0@0 1@0 ]  6 -> [ 4@0 ]  ], output requests = [ 0 -> [ 2@0 ]  1 -> [ 2@0 ]  4 -> [ 6@0 ]  ].
7528 | network_0/router_3_4/vc_allocator | Input grants = [ 2 -> 0  6 -> 4  ], output grants = [ 0 -> 2  4 -> 6  ].
7528 | network_0/router_3_4 | Assigning VC 0 at output 2 to VC 0 at input 3.
7528 | network_0/router_3_4 | Completed VC allocation for VC 0 at input 3 (front: 192022).
7528 | network_0/router_3_4 |   Acquiring assigned VC 0 at output 2.
7528 | network_0/router_3_4/buf_3/vc_0 | Changing state from vc_alloc to active.
7528 | network_0/router_3_4 | Beginning switch allocation for VC 0 at input 3 (front: 192022).
[...]
Additional hops: 39009
Adding flit 1495954 as NACK at time 58473
Additional hops: 39016
Adding flit 1496402 as NACK at time 58474
Additional hops: 39023
Adding flit 1496696 as NACK at time 58479
Additional hops: 39032
Adding flit 1496505 as NACK at time 58483
Reenqueueing errored packet 1496402 at time 58489
Reenqueueing errored packet 1496696 at time 58494
Reenqueueing errored packet 1495954 at time 58498
Additional hops: 39037
Adding flit 1497406 as NACK at time 58500
Reenqueueing errored packet 1496505 at time 58502
Additional hops: 39044
Adding flit 1497186 as NACK at time 58502
Additional hops: 39055
Adding flit 1496962 as NACK at time 58507
Reenqueueing errored packet 1497406 at time 58511
Reenqueueing errored packet 1497186 at time 58517
Additional hops: 39063
Adding flit 1497665 as NACK at time 58518
Uncorrectable 3
Additional hops: 39071
Adding flit 1497495 as NACK at time 58518
Additional hops: 39078
Adding flit 1497949 as NACK at time 58529
Reenqueueing errored packet 1496962 at time 58530
Additional hops: 39088
Adding flit 1497754 as NACK at time 58532
Additional hops: 39096
Adding flit 1497990 as NACK at time 58534
Reenqueueing errored packet 1497495 at time 58535
Reenqueueing errored packet 1497665 at time 58535
Reenqueueing errored packet 1497949 at time 58544
Reenqueueing errored packet 1497990 at time 58551
Reenqueueing errored packet 1497754 at time 58553
Additional hops: 39101
Adding flit 1499461 as NACK at time 58584
Additional hops: 39103
Adding flit 1499859 as NACK at time 58586
Reenqueueing errored packet 1499859 at time 58591
Additional hops: 39113
Adding flit 1499331 as NACK at time 58593
Reenqueueing errored packet 1499461 at time 58595
Reenqueueing errored packet 1499331 at time 58614
Additional hops: 39123
Adding flit 1500101 as NACK at time 58626
Additional hops: 39130
Adding flit 1500393 as NACK at time 58626
Reenqueueing errored packet 1500393 at time 58641
Reenqueueing errored packet 1500101 at time 58647
Additional hops: 39137
Adding flit 1500958 as NACK at time 58647
Additional hops: 39145
Adding flit 1500952 as NACK at time 58648
Reenqueueing errored packet 1500958 at time 58662
Additional hops: 39153
Adding flit 1501210 as NACK at time 58662
Reenqueueing errored packet 1500952 at time 58665
Additional hops: 39161
Adding flit 1501669 as NACK at time 58677
Reenqueueing errored packet 1501210 at time 58679
Reenqueueing errored packet 1501669 at time 58694
Additional hops: 39171
Adding flit 1501998 as NACK at time 58703
Reenqueueing errored packet 1501998 at time 58724
Uncorrectable 3
Additional hops: 39181
Adding flit 1502855 as NACK at time 58735
Additional hops: 39186
Adding flit 1503505 as NACK at time 58744
Reenqueueing errored packet 1503505 at time 58755
Reenqueueing errored packet 1502855 at time 58756
Additional hops: 39197
Adding flit 1504544 as NACK at time 58801
Additional hops: 39205
Adding flit 1504900 as NACK at time 58810
Uncorrectable 3
Additional hops: 39211
Adding flit 1505122 as NACK at time 58819
Reenqueueing errored packet 1504544 at time 58824
Reenqueueing errored packet 1504900 at time 58827
Additional hops: 39220
Adding flit 1505312 as NACK at time 58831
Reenqueueing errored packet 1505122 at time 58832
Additional hops: 39229
Adding flit 1505662 as NACK at time 58840
Reenqueueing errored packet 1505312 at time 58850
Additional hops: 39240
Adding flit 1505747 as NACK at time 58853
Reenqueueing errored packet 1505662 at time 58859
Additional hops: 39252
Adding flit 1506018 as NACK at time 58869
Additional hops: 39262
Adding flit 1506401 as NACK at time 58874
Reenqueueing errored packet 1505747 at time 58876
Additional hops: 39274
Adding flit 1506319 as NACK at time 58880
Additional hops: 39276
Adding flit 1507213 as NACK at time 58880
Reenqueueing errored packet 1507213 at time 58885
Additional hops: 39282
Adding flit 1506935 as NACK at time 58889
Reenqueueing errored packet 1506018 at time 58894
Reenqueueing errored packet 1506401 at time 58895
Additional hops: 39288
Adding flit 1507421 as NACK at time 58900
Additional hops: 39298
Adding flit 1506847 as NACK at time 58901
Reenqueueing errored packet 1506935 at time 58902
Reenqueueing errored packet 1506319 at time 58905
Additional hops: 39307
Adding flit 1507342 as NACK at time 58909
Additional hops: 39316
Adding flit 1507393 as NACK at time 58910
Reenqueueing errored packet 1507421 at time 58913
Additional hops: 39320
Adding flit 1507964 as NACK at time 58914
Additional hops: 39323
Adding flit 1508096 as NACK at time 58916
Reenqueueing errored packet 1506847 at time 58922
Reenqueueing errored packet 1508096 at time 58923
Reenqueueing errored packet 1507964 at time 58923
Reenqueueing errored packet 1507342 at time 58928
Reenqueueing errored packet 1507393 at time 58929
Uncorrectable 3
Additional hops: 39333
Adding flit 1508110 as NACK at time 58939
Uncorrectable 3
Additional hops: 39343
Adding flit 1507995 as NACK at time 58940
Additional hops: 39351
Adding flit 1507964 as NACK at time 58941
Reenqueueing errored packet 1507964 at time 58958
Additional hops: 39361
Adding flit 1508290 as NACK at time 58959
Reenqueueing errored packet 1508110 at time 58960
Reenqueueing errored packet 1507995 at time 58961
Additional hops: 39368
Adding flit 1509313 as NACK at time 58977
Additional hops: 39377
Adding flit 1508589 as NACK at time 58979
Reenqueueing errored packet 1508290 at time 58980
Reenqueueing errored packet 1509313 at time 58992
Reenqueueing errored packet 1508589 at time 58998
Uncorrectable 3
Additional hops: 39385
Adding flit 1509852 as NACK at time 59002
Additional hops: 39394
Adding flit 1509915 as NACK at time 59014
Reenqueueing errored packet 1509852 at time 59019
Additional hops: 39403
Adding flit 1509929 as NACK at time 59022
Additional hops: 39408
Adding flit 1510534 as NACK at time 59023
Additional hops: 39414
Adding flit 1510765 as NACK at time 59030
Reenqueueing errored packet 1509915 at time 59033
Reenqueueing errored packet 1510534 at time 59034
Additional hops: 39422
Adding flit 1510658 as NACK at time 59039
Additional hops: 39431
Adding flit 1510673 as NACK at time 59040
Reenqueueing errored packet 1509929 at time 59041
Additional hops: 39442
Adding flit 1510518 as NACK at time 59041
Reenqueueing errored packet 1510765 at time 59043
Additional hops: 39449
Adding flit 1511279 as NACK at time 59054
Reenqueueing errored packet 1510658 at time 59056
Reenqueueing errored packet 1510673 at time 59059
Reenqueueing errored packet 1510518 at time 59064
Additional hops: 39453
Adding flit 1511740 as NACK at time 59067
Reenqueueing errored packet 1511279 at time 59069
Reenqueueing errored packet 1511740 at time 59076
Additional hops: 39458
Adding flit 1512217 as NACK at time 59087
Uncorrectable 3
Additional hops: 39466
Adding flit 1512151 as NACK at time 59092
Reenqueueing errored packet 1512217 at time 59098
Reenqueueing errored packet 1512151 at time 59109
Additional hops: 39475
Adding flit 1512600 as NACK at time 59112
Additional hops: 39478
Adding flit 1513339 as NACK at time 59126
Additional hops: 39482
Adding flit 1513380 as NACK at time 59129
Reenqueueing errored packet 1512600 at time 59131
Reenqueueing errored packet 1513339 at time 59133
Reenqueueing errored packet 1513380 at time 59138
Additional hops: 39490
Adding flit 1513310 as NACK at time 59144
Additional hops: 39502
Adding flit 1513242 as NACK at time 59150
Reenqueueing errored packet 1513310 at time 59161
Additional hops: 39509
Adding flit 1514012 as NACK at time 59165
Additional hops: 39518
Adding flit 1513853 as NACK at time 59167
Reenqueueing errored packet 1513242 at time 59175
Reenqueueing errored packet 1514012 at time 59180
Reenqueueing errored packet 1513853 at time 59186
Additional hops: 39525
Adding flit 1514685 as NACK at time 59194
Additional hops: 39536
Adding flit 1514464 as NACK at time 59205
Reenqueueing errored packet 1514685 at time 59209
Additional hops: 39545
Adding flit 1514987 as NACK at time 59210
Additional hops: 39554
Adding flit 1515047 as NACK at time 59216
Additional hops: 39560
Adding flit 1515451 as NACK at time 59223
Reenqueueing errored packet 1514464 at time 59228
Reenqueueing errored packet 1514987 at time 59229
Reenqueueing errored packet 1515047 at time 59235
Reenqueueing errored packet 1515451 at time 59236
Additional hops: 39570
Adding flit 1516644 as NACK at time 59285
Additional hops: 39577
Adding flit 1516967 as NACK at time 59287
Additional hops: 39583
Adding flit 1516985 as NACK at time 59287
Reenqueueing errored packet 1516985 at time 59300
Reenqueueing errored packet 1516967 at time 59302
Reenqueueing errored packet 1516644 at time 59306
Additional hops: 39587
Adding flit 1518619 as NACK at time 59337
Reenqueueing errored packet 1518619 at time 59346
Additional hops: 39590
Adding flit 1519006 as NACK at time 59349
Additional hops: 39597
Adding flit 1518799 as NACK at time 59355
Reenqueueing errored packet 1519006 at time 59356
Additional hops: 39605
Adding flit 1518752 as NACK at time 59369
Reenqueueing errored packet 1518799 at time 59370
Additional hops: 39613
Adding flit 1519384 as NACK at time 59378
Reenqueueing errored packet 1518752 at time 59386
Additional hops: 39616
Adding flit 1520189 as NACK at time 59394
Reenqueueing errored packet 1519384 at time 59395
Additional hops: 39624
Adding flit 1519747 as NACK at time 59395
Reenqueueing errored packet 1520189 at time 59401
Additional hops: 39633
Adding flit 1519838 as NACK at time 59405
Additional hops: 39638
Adding flit 1520142 as NACK at time 59406
Additional hops: 39644
Adding flit 1520159 as NACK at time 59407
Additional hops: 39650
Adding flit 1520273 as NACK at time 59408
Additional hops: 39658
Adding flit 1520169 as NACK at time 59409
Reenqueueing errored packet 1519747 at time 59412
Additional hops: 39663
Adding flit 1520293 as NACK at time 59414
Reenqueueing errored packet 1520142 at time 59417
Reenqueueing errored packet 1520159 at time 59420
Reenqueueing errored packet 1520273 at time 59421
Reenqueueing errored packet 1519838 at time 59424
Reenqueueing errored packet 1520293 at time 59425
Reenqueueing errored packet 1520169 at time 59426
Additional hops: 39666
Adding flit 1520989 as NACK at time 59428
Reenqueueing errored packet 1520989 at time 59435
Additional hops: 39676
Adding flit 1520731 as NACK at time 59439
Reenqueueing errored packet 1520731 at time 59460
Additional hops: 39684
Adding flit 1521357 as NACK at time 59460
Additional hops: 39694
Adding flit 1521136 as NACK at time 59467
Additional hops: 39704
Adding flit 1521360 as NACK at time 59470
Reenqueueing errored packet 1521357 at time 59477
Reenqueueing errored packet 1521136 at time 59488
Additional hops: 39711
Adding flit 1522237 as NACK at time 59489
Reenqueueing errored packet 1521360 at time 59491
Additional hops: 39720
Adding flit 1522091 as NACK at time 59492
Additional hops: 39724
Adding flit 1522686 as NACK at time 59493
Additional hops: 39731
Adding flit 1522429 as NACK at time 59497
Reenqueueing errored packet 1522686 at time 59502
Additional hops: 39738
Adding flit 1522663 as NACK at time 59503
Reenqueueing errored packet 1522237 at time 59504
Additional hops: 39744
Adding flit 1522943 as NACK at time 59508
Additional hops: 39754
Adding flit 1522224 as NACK at time 59509
Reenqueueing errored packet 1522091 at time 59511
Reenqueueing errored packet 1522429 at time 59512
Reenqueueing errored packet 1522663 at time 59518
Reenqueueing errored packet 1522943 at time 59521
Uncorrectable 3
Additional hops: 39765
Adding flit 1522903 as NACK at time 59522
Reenqueueing errored packet 1522224 at time 59530
Additional hops: 39777
Adding flit 1522831 as NACK at time 59533
Reenqueueing errored packet 1522903 at time 59545
Additional hops: 39789
Adding flit 1523361 as NACK at time 59546
Additional hops: 39795
Adding flit 1523938 as NACK at time 59548
Additional hops: 39803
Adding flit 1523773 as NACK at time 59549
Additional hops: 39812
Adding flit 1523775 as NACK at time 59554
Reenqueueing errored packet 1522831 at time 59558
Additional hops: 39822
Adding flit 1523835 as NACK at time 59559
Reenqueueing errored packet 1523938 at time 59561
Additional hops: 39830
Adding flit 1524130 as NACK at time 59564
Reenqueueing errored packet 1523773 at time 59566
Reenqueueing errored packet 1523361 at time 59571
Reenqueueing errored packet 1523775 at time 59573
Reenqueueing errored packet 1523835 at time 59580
Reenqueueing errored packet 1524130 at time 59581
Uncorrectable 3
Additional hops: 39835
Adding flit 1525277 as NACK at time 59596
Additional hops: 39859
Adding flit 1522831 as NACK at time 59603
Additional hops: 39869
Adding flit 1524961 as NACK at time 59605
Reenqueueing errored packet 1525277 at time 59607
Additional hops: 39878
Adding flit 1525477 as NACK at time 59617
Additional hops: 39881
Adding flit 1526111 as NACK at time 59622
Reenqueueing errored packet 1524961 at time 59626
Additional hops: 39888
Adding flit 1526037 as NACK at time 59628
Reenqueueing errored packet 1526111 at time 59629
Additional hops: 39897
Adding flit 1525761 as NACK at time 59630
Additional hops: 39906
Adding flit 1525575 as NACK at time 59630
Additional hops: 39921
Adding flit 1525454 as NACK at time 59633
Reenqueueing errored packet 1525477 at time 59636
Reenqueueing errored packet 1526037 at time 59643
Reenqueueing errored packet 1525575 at time 59649
Reenqueueing errored packet 1525761 at time 59649
Additional hops: 39928
Adding flit 1526572 as NACK at time 59650
Reenqueueing errored packet 1522831 at time 59652
Additional hops: 39933
Adding flit 1526739 as NACK at time 59658
Additional hops: 39939
Adding flit 1526853 as NACK at time 59663
Reenqueueing errored packet 1525454 at time 59664
Reenqueueing errored packet 1526572 at time 59665
Reenqueueing errored packet 1526739 at time 59669
Reenqueueing errored packet 1526853 at time 59676
Additional hops: 39946
Adding flit 1527094 as NACK at time 59676
Reenqueueing errored packet 1527094 at time 59691
Additional hops: 39956
Adding flit 1527724 as NACK at time 59712
Reenqueueing errored packet 1527724 at time 59733
Additional hops: 39959
Adding flit 1530162 as NACK at time 59779
Reenqueueing errored packet 1530162 at time 59786
Additional hops: 39969
Adding flit 1529731 as NACK at time 59787
Additional hops: 39973
Adding flit 1530455 as NACK at time 59793
Reenqueueing errored packet 1530455 at time 59802
Additional hops: 39981
Adding flit 1530404 as NACK at time 59803
Reenqueueing errored packet 1529731 at time 59808
Additional hops: 39986
Adding flit 1530813 as NACK at time 59809
Reenqueueing errored packet 1530813 at time 59820
Reenqueueing errored packet 1530404 at time 59820
Additional hops: 39999
Adding flit 1530668 as NACK at time 59833
Additional hops: 40008
Adding flit 1531374 as NACK at time 59850
Additional hops: 40013
Adding flit 1531870 as NACK at time 59851
Reenqueueing errored packet 1530668 at time 59860
Additional hops: 40019
Adding flit 1532027 as NACK at time 59861
Reenqueueing errored packet 1531870 at time 59862
Reenqueueing errored packet 1531374 at time 59869
Reenqueueing errored packet 1532027 at time 59874
Additional hops: 40029
Adding flit 1532370 as NACK at time 59893
Additional hops: 40035
Adding flit 1532895 as NACK at time 59899
Additional hops: 40045
Adding flit 1532882 as NACK at time 59909
Reenqueueing errored packet 1532895 at time 59912
Reenqueueing errored packet 1532370 at time 59914
Additional hops: 40051
Adding flit 1533626 as NACK at time 59924
Additional hops: 40059
Adding flit 1533320 as NACK at time 59926
Reenqueueing errored packet 1532882 at time 59930
Additional hops: 40064
Adding flit 1533935 as NACK at time 59932
Reenqueueing errored packet 1533626 at time 59937
Additional hops: 40073
Adding flit 1533761 as NACK at time 59937
Additional hops: 40081
Adding flit 1533845 as NACK at time 59939
Reenqueueing errored packet 1533935 at time 59943
Reenqueueing errored packet 1533320 at time 59943
Additional hops: 40090
Adding flit 1533917 as NACK at time 59950
Reenqueueing errored packet 1533845 at time 59956
Reenqueueing errored packet 1533761 at time 59956
Additional hops: 40094
Adding flit 1534721 as NACK at time 59959
Reenqueueing errored packet 1534721 at time 59968
Reenqueueing errored packet 1533917 at time 59969
Additional hops: 40106
Adding flit 1534468 as NACK at time 59977
Class 0:
Packet latency average = 24.2907
	minimum = 5
	maximum = 232
Network latency average = 24.1402
	minimum = 5
	maximum = 84
Slowest packet = 767916
Flit latency average = 24.1454
	minimum = 5
	maximum = 84
Slowest flit = 1321541
Fragmentation average = 0
	minimum = 0
	maximum = 0
Injected packet rate average = 0.401586
	minimum = 0.3958 (at node 35)
	maximum = 0.410233 (at node 2)
Accepted packet rate average = 0.401608
	minimum = 0.3936 (at node 18)
	maximum = 0.408367 (at node 31)
Injected flit rate average = 0.401586
	minimum = 0.3958 (at node 35)
	maximum = 0.410233 (at node 2)
Accepted flit rate average= 0.401608
	minimum = 0.3936 (at node 18)
	maximum = 0.408367 (at node 31)
Injected packet length average = 1
Accepted packet length average = 1
Total in-flight flits = 638 (635 measured)
latency change    = 0.000650461
throughput change = 3.95545e-05
Draining all recorded packets ...
Reenqueueing errored packet 1534468 at time 60002
Class 0:
Remaining flits: 320579 345437 632108 1316949 1560350 1560516 1560595 1560620 1560622 1560664 [...] (634 flits)
Measured flits: 1316949 (1 flits)
Class 0:
Remaining flits: 320579 345437 632108 1316949 1586114 1586164 1586287 1586296 1586297 1586316 [...] (622 flits)
Measured flits: 1316949 (1 flits)
Class 0:
Remaining flits: 320579 345437 632108 1316949 1611878 1611921 1611927 1611936 1611954 1611979 [...] (639 flits)
Measured flits: 1316949 (1 flits)
Class 0:
Remaining flits: 320579 345437 632108 1316949 1637325 1637404 1637405 1637479 1637482 1637489 [...] (613 flits)
Measured flits: 1316949 (1 flits)
Class 0:
Remaining flits: 320579 345437 632108 1316949 1662974 1662991 1663113 1663114 1663169 1663185 [...] (658 flits)
Measured flits: 1316949 (1 flits)
Class 0:
Remaining flits: 320579 345437 632108 1316949 1688555 1688584 1688643 1688722 1688723 1688728 [...] (598 flits)
Measured flits: 1316949 (1 flits)
Class 0:
Remaining flits: 320579 345437 632108 1316949 1714140 1714209 1714262 1714314 1714327 1714328 [...] (590 flits)
Measured flits: 1316949 (1 flits)
Draining remaining packets ...
Class 0:
Remaining flits: 320579 345437 632108 1316949 (4 flits)
Measured flits: 1316949 (1 flits)
WARNING: Possible network deadlock.
Class 0:
Remaining flits: 320579 345437 632108 1316949 (4 flits)
Measured flits: 1316949 (1 flits)
WARNING: Possible network deadlock.
Class 0:
Remaining flits: 320579 345437 632108 1316949 (4 flits)
Measured flits: 1316949 (1 flits)
WARNING: Possible network deadlock.
Class 0:
Remaining flits: 320579 345437 632108 1316949 (4 flits)
Measured flits: 1316949 (1 flits)
Time taken is 68000 cycles
====== Overall Traffic Statistics ======
====== Traffic class 0 ======
Packet latency average = 24.2951 (1 samples)
	minimum = 5 (1 samples)
	maximum = 232 (1 samples)
Network latency average = 24.1446 (1 samples)
	minimum = 5 (1 samples)
	maximum = 84 (1 samples)
Flit latency average = 24.1374 (1 samples)
	minimum = 5 (1 samples)
	maximum = 84 (1 samples)
Fragmentation average = 0 (1 samples)
	minimum = 0 (1 samples)
	maximum = 0 (1 samples)
Injected packet rate average = 0.401586 (1 samples)
	minimum = 0.3958 (1 samples)
	maximum = 0.410233 (1 samples)
Accepted packet rate average = 0.401608 (1 samples)
	minimum = 0.3936 (1 samples)
	maximum = 0.408367 (1 samples)
Injected flit rate average = 0.401586 (1 samples)
	minimum = 0.3958 (1 samples)
	maximum = 0.410233 (1 samples)
Accepted flit rate average = 0.401608 (1 samples)
	minimum = 0.3936 (1 samples)
	maximum = 0.408367 (1 samples)
Injected packet size average = 1 (1 samples)
Accepted packet size average = 1 (1 samples)
Hops average = 6.27639 (1 samples)
Total run time 175.156
