BEGIN Configuration File: examples/ecc_mesh88_config_1_0.300_packet_2
// $Id$

// Copyright (c) 2007-2015, Trustees of The Leland Stanford Junior University
// All rights reserved.
//
// Redistribution and use in source and binary forms, with or without
// modification, are permitted provided that the following conditions are met:
//
// Redistributions of source code must retain the above copyright notice, this
// list of conditions and the following disclaimer.
// Redistributions in binary form must reproduce the above copyright notice,
// this list of conditions and the following disclaimer in the documentation
// and/or other materials provided with the distribution.
//
// THIS SOFTWARE IS PROVIDED BY THE COPYRIGHT HOLDERS AND CONTRIBUTORS "AS IS"
// AND ANY EXPRESS OR IMPLIED WARRANTIES, INCLUDING, BUT NOT LIMITED TO, THE
// IMPLIED WARRANTIES OF MERCHANTABILITY AND FITNESS FOR A PARTICULAR PURPOSE
// ARE DISCLAIMED. IN NO EVENT SHALL THE COPYRIGHT OWNER OR CONTRIBUTORS BE
// LIABLE FOR ANY DIRECT, INDIRECT, INCIDENTAL, SPECIAL, EXEMPLARY, OR
// CONSEQUENTIAL DAMAGES (INCLUDING, BUT NOT LIMITED TO, PROCUREMENT OF
// SUBSTITUTE GOODS OR SERVICES; LOSS OF USE, DATA, OR PROFITS; OR BUSINESS
// INTERRUPTION) HOWEVER CAUSED AND ON ANY THEORY OF LIABILITY, WHETHER IN
// CONTRACT, STRICT LIABILITY, OR TORT (INCLUDING NEGLIGENCE OR OTHERWISE)
// ARISING IN ANY WAY OUT OF THE USE OF THIS SOFTWARE, EVEN IF ADVISED OF THE
// POSSIBILITY OF SUCH DAMAGE.

// Dragonfly
//




vc_buf_size = 256;


wait_for_tail_credit = 0;

//
// Router architecture
//
vc_allocator = separable_input_first; 
sw_allocator = separable_input_first;
alloc_iters  = 1;

credit_delay   = 2;
routing_delay  = 0;
vc_alloc_delay = 1;
sw_alloc_delay = 1;
st_final_delay = 1;

input_speedup     = 1;
output_speedup    = 1;
internal_speedup  = 2.0;


warmup_periods = 3;
sim_count          = 1;

sample_period  = 10000;  


routing_function = dor;
num_vcs     = 2;

priority = none;
traffic       = uniform; 

injection_rate = 0.3;
packet_size = 1;
injection_rate_uses_flits=1;

topology = mesh;

k  = 8;
n  = 2;

fer = 2;
ecc = link;
correctable = 1;

watch_out=-;
watch_file = watch.txt;

ecc = packet;

stats_out = examples/ecc_mesh88_config_1_0.300_packet_2.m;

END Configuration File: examples/ecc_mesh88_config_1_0.300_packet_2
Additional hops: 10
Adding flit 176 as NACK at time 40
Additional hops: 22
Adding flit 64 as NACK at time 44
Additional hops: 26
Adding flit 782 as NACK at time 57
Additional hops: 33
Adding flit 572 as NACK at time 59
Reenqueueing errored packet 176 at time 61
Reenqueueing errored packet 782 at time 66
Additional hops: 40
Adding flit 716 as NACK at time 67
Reenqueueing errored packet 64 at time 69
Reenqueueing errored packet 572 at time 74
Reenqueueing errored packet 716 at time 82
Additional hops: 55
Adding flit 1089 as NACK at time 107
Additional hops: 61
Adding flit 1898 as NACK at time 126
Reenqueueing errored packet 1089 at time 138
Reenqueueing errored packet 1898 at time 139
Additional hops: 68
Adding flit 2305 as NACK at time 147
Additional hops: 76
Adding flit 2236 as NACK at time 149
Additional hops: 83
Adding flit 2445 as NACK at time 153
Reenqueueing errored packet 2305 at time 162
Reenqueueing errored packet 2236 at time 166
Reenqueueing errored packet 2445 at time 168
Additional hops: 95
Adding flit 2803 as NACK at time 189
Reenqueueing errored packet 2803 at time 214
Additional hops: 107
Adding flit 3255 as NACK at time 215
Reenqueueing errored packet 3255 at time 240
Additional hops: 113
Adding flit 4514 as NACK at time 258
Reenqueueing errored packet 4514 at time 271
Additional hops: 124
Adding flit 4710 as NACK at time 282
Reenqueueing errored packet 4710 at time 305
Additional hops: 132
Adding flit 5713 as NACK at time 326
Reenqueueing errored packet 5713 at time 343
Additional hops: 141
Adding flit 6117 as NACK at time 353
Reenqueueing errored packet 6117 at time 372
Uncorrectable 3
Additional hops: 150
Adding flit 6698 as NACK at time 379
Reenqueueing errored packet 6698 at time 398
Additional hops: 154
Adding flit 8595 as NACK at time 462
Additional hops: 165
Adding flit 8136 as NACK at time 464
Reenqueueing errored packet 8595 at time 471
Additional hops: 175
Adding flit 8457 as NACK at time 475
Additional hops: 184
Adding flit 8593 as NACK at time 476
Reenqueueing errored packet 8136 at time 487
Reenqueueing errored packet 8593 at time 495
Reenqueueing errored packet 8457 at time 496
Additional hops: 189
Adding flit 9406 as NACK at time 507
Uncorrectable 3
Additional hops: 197
Adding flit 9342 as NACK at time 510
Reenqueueing errored packet 9406 at time 518
Additional hops: 203
Adding flit 9653 as NACK at time 520
Reenqueueing errored packet 9342 at time 527
Additional hops: 206
Adding flit 9927 as NACK at time 527
Additional hops: 215
Adding flit 9705 as NACK at time 531
Reenqueueing errored packet 9653 at time 533
Reenqueueing errored packet 9927 at time 534
Reenqueueing errored packet 9705 at time 550
Additional hops: 222
Adding flit 10374 as NACK at time 560
Additional hops: 232
Adding flit 10181 as NACK at time 563
Reenqueueing errored packet 10374 at time 575
Additional hops: 239
Adding flit 10832 as NACK at time 583
Reenqueueing errored packet 10181 at time 584
Additional hops: 247
Adding flit 10819 as NACK at time 588
Reenqueueing errored packet 10832 at time 598
Additional hops: 255
Adding flit 11158 as NACK at time 603
Reenqueueing errored packet 10819 at time 605
Additional hops: 264
Adding flit 11374 as NACK at time 618
Reenqueueing errored packet 11158 at time 620
Additional hops: 272
Adding flit 11768 as NACK at time 633
Reenqueueing errored packet 11374 at time 637
Additional hops: 280
Adding flit 12059 as NACK at time 646
Additional hops: 292
Adding flit 11790 as NACK at time 649
Reenqueueing errored packet 11768 at time 650
Additional hops: 301
Adding flit 12232 as NACK at time 659
Reenqueueing errored packet 12059 at time 663
Reenqueueing errored packet 11790 at time 674
Reenqueueing errored packet 12232 at time 678
Additional hops: 312
Adding flit 12876 as NACK at time 701
Additional hops: 321
Adding flit 13239 as NACK at time 713
Additional hops: 331
Adding flit 13391 as NACK at time 721
Reenqueueing errored packet 12876 at time 724
Additional hops: 335
Adding flit 13907 as NACK at time 730
Reenqueueing errored packet 13239 at time 732
Reenqueueing errored packet 13907 at time 739
Additional hops: 340
Adding flit 14035 as NACK at time 740
Reenqueueing errored packet 13391 at time 742
Reenqueueing errored packet 14035 at time 751
Additional hops: 352
Adding flit 14988 as NACK at time 813
Additional hops: 357
Adding flit 15617 as NACK at time 822
Reenqueueing errored packet 15617 at time 833
Reenqueueing errored packet 14988 at time 838
Additional hops: 363
Adding flit 15865 as NACK at time 838
Additional hops: 368
Adding flit 16050 as NACK at time 848
Additional hops: 375
Adding flit 15957 as NACK at time 848
Reenqueueing errored packet 15865 at time 851
Reenqueueing errored packet 16050 at time 859
Additional hops: 380
Adding flit 16334 as NACK at time 861
Reenqueueing errored packet 15957 at time 863
Uncorrectable 3
Additional hops: 395
Adding flit 15862 as NACK at time 867
Reenqueueing errored packet 16334 at time 872
Additional hops: 401
Adding flit 16824 as NACK at time 893
Reenqueueing errored packet 15862 at time 898
Reenqueueing errored packet 16824 at time 906
Additional hops: 407
Adding flit 17927 as NACK at time 945
Reenqueueing errored packet 17927 at time 958
Additional hops: 413
Adding flit 18460 as NACK at time 972
Additional hops: 416
Adding flit 18847 as NACK at time 983
Reenqueueing errored packet 18460 at time 985
Additional hops: 424
Adding flit 18601 as NACK at time 986
Reenqueueing errored packet 18847 at time 990
Additional hops: 434
Adding flit 18602 as NACK at time 991
Additional hops: 445
Adding flit 18538 as NACK at time 996
Additional hops: 454
Adding flit 18748 as NACK at time 998
Additional hops: 460
Adding flit 18991 as NACK at time 999
Additional hops: 462
Adding flit 19235 as NACK at time 999
Reenqueueing errored packet 18601 at time 1003
Reenqueueing errored packet 19235 at time 1004
Reenqueueing errored packet 18991 at time 1012
Reenqueueing errored packet 18602 at time 1012
Reenqueueing errored packet 18748 at time 1017
Reenqueueing errored packet 18538 at time 1019
Additional hops: 468
Adding flit 19635 as NACK at time 1036
Additional hops: 475
Adding flit 19758 as NACK at time 1045
Reenqueueing errored packet 19635 at time 1049
Reenqueueing errored packet 19758 at time 1060
Additional hops: 483
Adding flit 20110 as NACK at time 1066
Additional hops: 489
Adding flit 20240 as NACK at time 1068
Additional hops: 496
Adding flit 20196 as NACK at time 1072
Additional hops: 505
Adding flit 20104 as NACK at time 1072
Reenqueueing errored packet 20240 at time 1081
Reenqueueing errored packet 20110 at time 1083
Reenqueueing errored packet 20196 at time 1087
Additional hops: 512
Adding flit 20584 as NACK at time 1088
Reenqueueing errored packet 20104 at time 1091
Additional hops: 517
Adding flit 20782 as NACK at time 1094
Reenqueueing errored packet 20584 at time 1103
Reenqueueing errored packet 20782 at time 1105
Additional hops: 522
Adding flit 21436 as NACK at time 1129
Reenqueueing errored packet 21436 at time 1140
Additional hops: 531
Adding flit 21907 as NACK at time 1167
Additional hops: 538
Adding flit 22099 as NACK at time 1170
Additional hops: 548
Adding flit 22027 as NACK at time 1177
Reenqueueing errored packet 22099 at time 1185
Reenqueueing errored packet 21907 at time 1186
Reenqueueing errored packet 22027 at time 1198
Additional hops: 556
Adding flit 22985 as NACK at time 1218
Reenqueueing errored packet 22985 at time 1235
Additional hops: 565
Adding flit 23315 as NACK at time 1243
Additional hops: 571
Adding flit 23628 as NACK at time 1246
Additional hops: 581
Adding flit 23534 as NACK at time 1255
Reenqueueing errored packet 23628 at time 1259
Reenqueueing errored packet 23315 at time 1262
Reenqueueing errored packet 23534 at time 1276
Additional hops: 590
Adding flit 24072 as NACK at time 1278
Additional hops: 602
Adding flit 24242 as NACK at time 1296
Reenqueueing errored packet 24072 at time 1297
Additional hops: 609
Adding flit 24740 as NACK at time 1307
Additional hops: 616
Adding flit 24960 as NACK at time 1318
Reenqueueing errored packet 24242 at time 1321
Reenqueueing errored packet 24740 at time 1322
Additional hops: 626
Adding flit 24963 as NACK at time 1326
Reenqueueing errored packet 24960 at time 1333
Reenqueueing errored packet 24963 at time 1347
Additional hops: 635
Adding flit 25494 as NACK at time 1350
Additional hops: 641
Adding flit 25824 as NACK at time 1359
Additional hops: 652
Adding flit 25593 as NACK at time 1360
Reenqueueing errored packet 25494 at time 1369
Reenqueueing errored packet 25824 at time 1372
Reenqueueing errored packet 25593 at time 1383
Additional hops: 663
Adding flit 26358 as NACK at time 1400
Additional hops: 669
Adding flit 26697 as NACK at time 1406
Additional hops: 678
Adding flit 26710 as NACK at time 1415
Reenqueueing errored packet 26697 at time 1419
Reenqueueing errored packet 26358 at time 1423
Additional hops: 686
Adding flit 26853 as NACK at time 1425
Reenqueueing errored packet 26710 at time 1434
Reenqueueing errored packet 26853 at time 1442
Additional hops: 699
Adding flit 27440 as NACK at time 1475
Uncorrectable 3
Additional hops: 706
Adding flit 27974 as NACK at time 1476
Additional hops: 711
Adding flit 28208 as NACK at time 1482
Reenqueueing errored packet 27974 at time 1491
Reenqueueing errored packet 28208 at time 1493
Reenqueueing errored packet 27440 at time 1502
Additional hops: 716
Adding flit 29149 as NACK at time 1530
Reenqueueing errored packet 29149 at time 1541
Additional hops: 730
Adding flit 29549 as NACK at time 1578
Additional hops: 739
Adding flit 29948 as NACK at time 1582
Additional hops: 749
Adding flit 29877 as NACK at time 1587
Reenqueueing errored packet 29948 at time 1601
Additional hops: 760
Adding flit 30137 as NACK at time 1604
Reenqueueing errored packet 29549 at time 1607
Reenqueueing errored packet 29877 at time 1608
Additional hops: 773
Adding flit 30221 as NACK at time 1615
Reenqueueing errored packet 30137 at time 1627
Reenqueueing errored packet 30221 at time 1642
Additional hops: 780
Adding flit 31155 as NACK at time 1643
Reenqueueing errored packet 31155 at time 1658
Uncorrectable 3
Additional hops: 790
Adding flit 31907 as NACK at time 1687
Additional hops: 794
Adding flit 32591 as NACK at time 1703
Reenqueueing errored packet 31907 at time 1708
Reenqueueing errored packet 32591 at time 1712
Additional hops: 798
Adding flit 32828 as NACK at time 1716
Reenqueueing errored packet 32828 at time 1725
Additional hops: 806
Adding flit 33383 as NACK at time 1756
Additional hops: 811
Adding flit 33773 as NACK at time 1769
Reenqueueing errored packet 33383 at time 1773
Reenqueueing errored packet 33773 at time 1780
Additional hops: 816
Adding flit 34099 as NACK at time 1786
Additional hops: 823
Adding flit 33949 as NACK at time 1786
Reenqueueing errored packet 34099 at time 1797
Reenqueueing errored packet 33949 at time 1801
Additional hops: 828
Adding flit 34725 as NACK at time 1820
Additional hops: 833
Adding flit 34783 as NACK at time 1824
Additional hops: 841
Adding flit 34652 as NACK at time 1825
Reenqueueing errored packet 34725 at time 1831
Reenqueueing errored packet 34783 at time 1835
Reenqueueing errored packet 34652 at time 1842
Additional hops: 851
Adding flit 35332 as NACK at time 1866
Additional hops: 860
Adding flit 35412 as NACK at time 1870
Additional hops: 869
Adding flit 35469 as NACK at time 1872
Additional hops: 878
Adding flit 35575 as NACK at time 1877
Reenqueueing errored packet 35332 at time 1887
Reenqueueing errored packet 35412 at time 1889
Reenqueueing errored packet 35469 at time 1891
Reenqueueing errored packet 35575 at time 1896
Additional hops: 886
Adding flit 36139 as NACK at time 1905
Additional hops: 890
Adding flit 36570 as NACK at time 1917
Reenqueueing errored packet 36139 at time 1922
Reenqueueing errored packet 36570 at time 1926
Additional hops: 895
Adding flit 36711 as NACK at time 1926
Additional hops: 905
Adding flit 36413 as NACK at time 1928
Reenqueueing errored packet 36711 at time 1937
Reenqueueing errored packet 36413 at time 1949
Additional hops: 921
Adding flit 36139 as NACK at time 1950
Additional hops: 931
Adding flit 36957 as NACK at time 1962
Reenqueueing errored packet 36957 at time 1983
Reenqueueing errored packet 36139 at time 1983
Additional hops: 943
Adding flit 37608 as NACK at time 1995
Additional hops: 952
Adding flit 37790 as NACK at time 1996
Additional hops: 963
Adding flit 37785 as NACK at time 2002
Reenqueueing errored packet 37790 at time 2015
Reenqueueing errored packet 37608 at time 2020
Reenqueueing errored packet 37785 at time 2025
Additional hops: 974
Adding flit 38805 as NACK at time 2055
Reenqueueing errored packet 38805 at time 2078
Additional hops: 982
Adding flit 39592 as NACK at time 2086
Reenqueueing errored packet 39592 at time 2103
Additional hops: 990
Adding flit 40216 as NACK at time 2122
Additional hops: 995
Adding flit 40502 as NACK at time 2130
Additional hops: 1001
Adding flit 40542 as NACK at time 2130
Reenqueueing errored packet 40216 at time 2139
Reenqueueing errored packet 40502 at time 2141
Reenqueueing errored packet 40542 at time 2143
Additional hops: 1009
Adding flit 40840 as NACK at time 2150
Additional hops: 1022
Adding flit 40793 as NACK at time 2163
Reenqueueing errored packet 40840 at time 2167
Additional hops: 1027
Adding flit 41439 as NACK at time 2173
Reenqueueing errored packet 41439 at time 2184
Reenqueueing errored packet 40793 at time 2190
Additional hops: 1034
Adding flit 41671 as NACK at time 2191
Additional hops: 1039
Adding flit 41841 as NACK at time 2193
Additional hops: 1046
Adding flit 41733 as NACK at time 2195
Additional hops: 1052
Adding flit 41859 as NACK at time 2197
Reenqueueing errored packet 41841 at time 2204
Reenqueueing errored packet 41671 at time 2206
Reenqueueing errored packet 41859 at time 2210
Reenqueueing errored packet 41733 at time 2210
Additional hops: 1058
Adding flit 42371 as NACK at time 2225
Reenqueueing errored packet 42371 at time 2238
Additional hops: 1066
Adding flit 42794 as NACK at time 2252
Reenqueueing errored packet 42794 at time 2269
Additional hops: 1074
Adding flit 43345 as NACK at time 2281
Additional hops: 1078
Adding flit 43724 as NACK at time 2289
Reenqueueing errored packet 43724 at time 2298
Reenqueueing errored packet 43345 at time 2298
Additional hops: 1091
Adding flit 43444 as NACK at time 2301
Additional hops: 1097
Adding flit 43916 as NACK at time 2306
Additional hops: 1106
Adding flit 43817 as NACK at time 2308
Reenqueueing errored packet 43916 at time 2319
Additional hops: 1115
Adding flit 44068 as NACK at time 2321
Reenqueueing errored packet 43817 at time 2327
Reenqueueing errored packet 43444 at time 2328
Reenqueueing errored packet 44068 at time 2340
Additional hops: 1123
Adding flit 44992 as NACK at time 2368
Reenqueueing errored packet 44992 at time 2385
Additional hops: 1124
Adding flit 46425 as NACK at time 2419
Reenqueueing errored packet 46425 at time 2422
Additional hops: 1132
Adding flit 46213 as NACK at time 2430
Additional hops: 1138
Adding flit 46414 as NACK at time 2436
Reenqueueing errored packet 46213 at time 2447
Reenqueueing errored packet 46414 at time 2449
Additional hops: 1147
Adding flit 46592 as NACK at time 2455
Additional hops: 1162
Adding flit 46531 as NACK at time 2466
Additional hops: 1173
Adding flit 46838 as NACK at time 2470
Reenqueueing errored packet 46592 at time 2474
Additional hops: 1182
Adding flit 47241 as NACK at time 2485
Additional hops: 1189
Adding flit 47461 as NACK at time 2490
Reenqueueing errored packet 46838 at time 2493
Reenqueueing errored packet 46531 at time 2497
Reenqueueing errored packet 47241 at time 2504
Reenqueueing errored packet 47461 at time 2505
Additional hops: 1202
Adding flit 47643 as NACK at time 2519
Additional hops: 1210
Adding flit 48182 as NACK at time 2530
Reenqueueing errored packet 47643 at time 2546
Reenqueueing errored packet 48182 at time 2547
Additional hops: 1217
Adding flit 48800 as NACK at time 2558
Additional hops: 1228
Adding flit 48756 as NACK at time 2569
Additional hops: 1232
Adding flit 49181 as NACK at time 2570
Reenqueueing errored packet 48800 at time 2573
Additional hops: 1238
Adding flit 49092 as NACK at time 2573
Reenqueueing errored packet 49181 at time 2579
Reenqueueing errored packet 49092 at time 2586
Additional hops: 1245
Adding flit 49294 as NACK at time 2586
Reenqueueing errored packet 48756 at time 2592
Additional hops: 1252
Adding flit 49473 as NACK at time 2598
Reenqueueing errored packet 49294 at time 2601
Reenqueueing errored packet 49473 at time 2613
Additional hops: 1264
Adding flit 49646 as NACK at time 2624
Reenqueueing errored packet 49646 at time 2649
Uncorrectable 3
Additional hops: 1276
Adding flit 50254 as NACK at time 2653
Additional hops: 1291
Adding flit 50258 as NACK at time 2661
Reenqueueing errored packet 50254 at time 2678
Additional hops: 1303
Adding flit 50833 as NACK at time 2681
Additional hops: 1311
Adding flit 51151 as NACK at time 2687
Reenqueueing errored packet 50258 at time 2692
Reenqueueing errored packet 51151 at time 2704
Reenqueueing errored packet 50833 at time 2706
Additional hops: 1320
Adding flit 53574 as NACK at time 2819
Reenqueueing errored packet 53574 at time 2838
Additional hops: 1329
Adding flit 55698 as NACK at time 2926
Additional hops: 1337
Adding flit 55724 as NACK at time 2929
Additional hops: 1346
Adding flit 56052 as NACK at time 2943
Reenqueueing errored packet 55698 at time 2945
Reenqueueing errored packet 55724 at time 2946
Additional hops: 1358
Adding flit 56087 as NACK at time 2955
Reenqueueing errored packet 56052 at time 2962
Reenqueueing errored packet 56087 at time 2980
Additional hops: 1369
Adding flit 56629 as NACK at time 2983
Reenqueueing errored packet 56629 at time 3006
Additional hops: 1376
Adding flit 57487 as NACK at time 3011
Additional hops: 1387
Adding flit 57298 as NACK at time 3017
Reenqueueing errored packet 57487 at time 3026
Additional hops: 1394
Adding flit 57783 as NACK at time 3032
Additional hops: 1401
Adding flit 57888 as NACK at time 3033
Reenqueueing errored packet 57298 at time 3040
Reenqueueing errored packet 57783 at time 3047
Reenqueueing errored packet 57888 at time 3048
Additional hops: 1407
Adding flit 58345 as NACK at time 3053
Additional hops: 1417
Adding flit 58058 as NACK at time 3053
Uncorrectable 3
Additional hops: 1427
Adding flit 58079 as NACK at time 3060
Reenqueueing errored packet 58345 at time 3066
Reenqueueing errored packet 58058 at time 3074
Reenqueueing errored packet 58079 at time 3081
Additional hops: 1435
Adding flit 58822 as NACK at time 3085
Additional hops: 1445
Adding flit 58802 as NACK at time 3090
Reenqueueing errored packet 58822 at time 3102
Reenqueueing errored packet 58802 at time 3111
Additional hops: 1454
Adding flit 60141 as NACK at time 3157
Additional hops: 1460
Adding flit 60344 as NACK at time 3160
Reenqueueing errored packet 60344 at time 3173
Additional hops: 1464
Adding flit 60725 as NACK at time 3174
Reenqueueing errored packet 60141 at time 3176
Reenqueueing errored packet 60725 at time 3183
Additional hops: 1475
Adding flit 60563 as NACK at time 3186
Additional hops: 1483
Adding flit 60735 as NACK at time 3188
Additional hops: 1493
Adding flit 60957 as NACK at time 3203
Reenqueueing errored packet 60735 at time 3205
Reenqueueing errored packet 60563 at time 3209
Additional hops: 1500
Adding flit 61377 as NACK at time 3218
Reenqueueing errored packet 60957 at time 3224
Additional hops: 1510
Adding flit 61372 as NACK at time 3225
Additional hops: 1517
Adding flit 61540 as NACK at time 3225
Reenqueueing errored packet 61377 at time 3233
Reenqueueing errored packet 61540 at time 3240
Reenqueueing errored packet 61372 at time 3246
Additional hops: 1528
Adding flit 62007 as NACK at time 3261
Additional hops: 1532
Adding flit 62590 as NACK at time 3270
Additional hops: 1538
Adding flit 62459 as NACK at time 3271
Reenqueueing errored packet 62590 at time 3279
Reenqueueing errored packet 62459 at time 3284
Reenqueueing errored packet 62007 at time 3284
Additional hops: 1545
Adding flit 62880 as NACK at time 3294
Additional hops: 1558
Adding flit 62581 as NACK at time 3296
Additional hops: 1567
Adding flit 63039 as NACK at time 3307
Additional hops: 1580
Adding flit 62842 as NACK at time 3308
Reenqueueing errored packet 62880 at time 3309
Reenqueueing errored packet 62581 at time 3323
Reenqueueing errored packet 63039 at time 3326
Additional hops: 1590
Adding flit 63270 as NACK at time 3334
Reenqueueing errored packet 62842 at time 3335
Reenqueueing errored packet 63270 at time 3355
Additional hops: 1594
Adding flit 64340 as NACK at time 3361
Reenqueueing errored packet 64340 at time 3370
Additional hops: 1606
Adding flit 64399 as NACK at time 3393
Additional hops: 1611
Adding flit 65176 as NACK at time 3405
Additional hops: 1621
Adding flit 64848 as NACK at time 3411
Reenqueueing errored packet 65176 at time 3416
Reenqueueing errored packet 64399 at time 3418
Additional hops: 1628
Adding flit 65350 as NACK at time 3423
Reenqueueing errored packet 64848 at time 3432
Reenqueueing errored packet 65350 at time 3438
Additional hops: 1640
Adding flit 65917 as NACK at time 3466
Additional hops: 1649
Adding flit 66153 as NACK at time 3470
Uncorrectable 3
Additional hops: 1659
Adding flit 66201 as NACK at time 3475
Reenqueueing errored packet 66153 at time 3489
Reenqueueing errored packet 65917 at time 3491
Reenqueueing errored packet 66201 at time 3496
Additional hops: 1668
Adding flit 66839 as NACK at time 3508
Additional hops: 1674
Adding flit 67055 as NACK at time 3510
Reenqueueing errored packet 67055 at time 3523
Reenqueueing errored packet 66839 at time 3527
Additional hops: 1684
Adding flit 67262 as NACK at time 3534
Additional hops: 1691
Adding flit 67569 as NACK at time 3540
Additional hops: 1695
Adding flit 67946 as NACK at time 3551
Reenqueueing errored packet 67569 at time 3555
Reenqueueing errored packet 67262 at time 3555
Reenqueueing errored packet 67946 at time 3560
Additional hops: 1708
Adding flit 67615 as NACK at time 3568
Additional hops: 1716
Adding flit 68215 as NACK at time 3580
Reenqueueing errored packet 67615 at time 3595
Reenqueueing errored packet 68215 at time 3597
Additional hops: 1720
Adding flit 68833 as NACK at time 3597
Additional hops: 1727
Adding flit 68714 as NACK at time 3600
Additional hops: 1736
Adding flit 68465 as NACK at time 3600
Additional hops: 1750
Adding flit 68392 as NACK at time 3604
Reenqueueing errored packet 68833 at time 3606
Reenqueueing errored packet 68714 at time 3615
Additional hops: 1758
Adding flit 68922 as NACK at time 3615
Reenqueueing errored packet 68465 at time 3619
Reenqueueing errored packet 68922 at time 3632
Reenqueueing errored packet 68392 at time 3633
Additional hops: 1768
Adding flit 69556 as NACK at time 3653
Additional hops: 1777
Adding flit 69775 as NACK at time 3666
Reenqueueing errored packet 69556 at time 3674
Additional hops: 1782
Adding flit 70256 as NACK at time 3678
Reenqueueing errored packet 69775 at time 3685
Reenqueueing errored packet 70256 at time 3689
Additional hops: 1792
Adding flit 70779 as NACK at time 3720
Additional hops: 1803
Adding flit 70802 as NACK at time 3729
Reenqueueing errored packet 70779 at time 3741
Reenqueueing errored packet 70802 at time 3752
Additional hops: 1814
Adding flit 71380 as NACK at time 3757
Reenqueueing errored packet 71380 at time 3780
Additional hops: 1821
Adding flit 72741 as NACK at time 3813
Additional hops: 1829
Adding flit 72785 as NACK at time 3818
Reenqueueing errored packet 72741 at time 3828
Additional hops: 1837
Adding flit 73053 as NACK at time 3832
Reenqueueing errored packet 72785 at time 3835
Reenqueueing errored packet 73053 at time 3849
Additional hops: 1844
Adding flit 73790 as NACK at time 3865
Additional hops: 1851
Adding flit 73892 as NACK at time 3872
Reenqueueing errored packet 73790 at time 3880
Additional hops: 1853
Adding flit 74467 as NACK at time 3885
Reenqueueing errored packet 73892 at time 3887
Reenqueueing errored packet 74467 at time 3890
Uncorrectable 3
Additional hops: 1859
Adding flit 74374 as NACK at time 3893
Additional hops: 1867
Adding flit 74221 as NACK at time 3894
Additional hops: 1877
Adding flit 74323 as NACK at time 3901
Reenqueueing errored packet 74374 at time 3906
Reenqueueing errored packet 74221 at time 3911
Reenqueueing errored packet 74323 at time 3922
Additional hops: 1886
Adding flit 75226 as NACK at time 3944
Reenqueueing errored packet 75226 at time 3963
Additional hops: 1895
Adding flit 76238 as NACK at time 3998
Additional hops: 1905
Adding flit 76379 as NACK at time 4008
Reenqueueing errored packet 76238 at time 4017
Additional hops: 1913
Adding flit 76680 as NACK at time 4021
Additional hops: 1923
Adding flit 76677 as NACK at time 4024
Reenqueueing errored packet 76379 at time 4029
Reenqueueing errored packet 76680 at time 4038
Additional hops: 1933
Adding flit 77114 as NACK at time 4044
Reenqueueing errored packet 76677 at time 4045
Additional hops: 1939
Adding flit 77456 as NACK at time 4052
Reenqueueing errored packet 77456 at time 4065
Reenqueueing errored packet 77114 at time 4065
Additional hops: 1947
Adding flit 77659 as NACK at time 4069
Reenqueueing errored packet 77659 at time 4086
Additional hops: 1953
Adding flit 78270 as NACK at time 4095
Additional hops: 1962
Adding flit 78304 as NACK at time 4104
Reenqueueing errored packet 78270 at time 4108
Additional hops: 1968
Adding flit 78631 as NACK at time 4116
Reenqueueing errored packet 78304 at time 4123
Reenqueueing errored packet 78631 at time 4129
Additional hops: 1972
Adding flit 79217 as NACK at time 4134
Reenqueueing errored packet 79217 at time 4143
Additional hops: 1983
Adding flit 79026 as NACK at time 4146
Additional hops: 1993
Adding flit 79064 as NACK at time 4150
Additional hops: 2001
Adding flit 79311 as NACK at time 4161
Reenqueueing errored packet 79026 at time 4169
Reenqueueing errored packet 79064 at time 4171
Reenqueueing errored packet 79311 at time 4178
Additional hops: 2010
Adding flit 80937 as NACK at time 4239
Additional hops: 2019
Adding flit 80996 as NACK at time 4243
Additional hops: 2028
Adding flit 81102 as NACK at time 4249
Reenqueueing errored packet 80937 at time 4258
Reenqueueing errored packet 80996 at time 4262
Reenqueueing errored packet 81102 at time 4268
Additional hops: 2037
Adding flit 81681 as NACK at time 4278
Reenqueueing errored packet 81681 at time 4297
Additional hops: 2047
Adding flit 82006 as NACK at time 4300
Additional hops: 2051
Adding flit 82775 as NACK at time 4320
Reenqueueing errored packet 82006 at time 4321
Reenqueueing errored packet 82775 at time 4329
Additional hops: 2058
Adding flit 84429 as NACK at time 4416
Additional hops: 2067
Adding flit 84393 as NACK at time 4418
Reenqueueing errored packet 84429 at time 4431
Reenqueueing errored packet 84393 at time 4437
Additional hops: 2073
Adding flit 85010 as NACK at time 4439
Reenqueueing errored packet 85010 at time 4452
Additional hops: 2078
Adding flit 85412 as NACK at time 4458
Reenqueueing errored packet 85412 at time 4469
Additional hops: 2087
Adding flit 85418 as NACK at time 4472
Reenqueueing errored packet 85418 at time 4491
Additional hops: 2092
Adding flit 86494 as NACK at time 4512
Reenqueueing errored packet 86494 at time 4523
Additional hops: 2101
Adding flit 86454 as NACK at time 4526
Reenqueueing errored packet 86454 at time 4545
Additional hops: 2110
Adding flit 86944 as NACK at time 4550
Additional hops: 2117
Adding flit 87270 as NACK at time 4565
Reenqueueing errored packet 86944 at time 4569
Reenqueueing errored packet 87270 at time 4580
Additional hops: 2124
Adding flit 87591 as NACK at time 4582
Reenqueueing errored packet 87591 at time 4597
Additional hops: 2128
Adding flit 88385 as NACK at time 4613
Reenqueueing errored packet 88385 at time 4622
Additional hops: 2138
Adding flit 88292 as NACK at time 4629
Additional hops: 2144
Adding flit 88766 as NACK at time 4639
Additional hops: 2155
Adding flit 88693 as NACK at time 4649
Reenqueueing errored packet 88292 at time 4650
Reenqueueing errored packet 88766 at time 4652
Reenqueueing errored packet 88693 at time 4672
Additional hops: 2159
Adding flit 90193 as NACK at time 4707
Reenqueueing errored packet 90193 at time 4716
Additional hops: 2166
Adding flit 90269 as NACK at time 4720
Reenqueueing errored packet 90269 at time 4735
Uncorrectable 3
Additional hops: 2174
Adding flit 90687 as NACK at time 4744
Additional hops: 2181
Adding flit 90895 as NACK at time 4757
Reenqueueing errored packet 90687 at time 4761
Reenqueueing errored packet 90895 at time 4772
Additional hops: 2187
Adding flit 91972 as NACK at time 4806
Reenqueueing errored packet 91972 at time 4819
Additional hops: 2196
Adding flit 92503 as NACK at time 4842
Reenqueueing errored packet 92503 at time 4861
Additional hops: 2203
Adding flit 93025 as NACK at time 4863
Reenqueueing errored packet 93025 at time 4878
Additional hops: 2212
Adding flit 93448 as NACK at time 4893
Reenqueueing errored packet 93448 at time 4912
Additional hops: 2219
Adding flit 94534 as NACK at time 4939
Additional hops: 2230
Adding flit 94525 as NACK at time 4951
Additional hops: 2240
Adding flit 94600 as NACK at time 4952
Reenqueueing errored packet 94534 at time 4954
Additional hops: 2247
Adding flit 95121 as NACK at time 4969
Reenqueueing errored packet 94600 at time 4973
Reenqueueing errored packet 94525 at time 4974
Additional hops: 2253
Adding flit 95315 as NACK at time 4976
Reenqueueing errored packet 95121 at time 4984
Additional hops: 2260
Adding flit 95432 as NACK at time 4984
Reenqueueing errored packet 95315 at time 4989
Reenqueueing errored packet 95432 at time 4999
Additional hops: 2267
Adding flit 95692 as NACK at time 5000
Additional hops: 2272
Adding flit 95811 as NACK at time 5000
Additional hops: 2280
Adding flit 95822 as NACK at time 5009
Reenqueueing errored packet 95811 at time 5011
Reenqueueing errored packet 95692 at time 5015
Additional hops: 2288
Adding flit 95997 as NACK at time 5018
Reenqueueing errored packet 95822 at time 5026
Reenqueueing errored packet 95997 at time 5035
Additional hops: 2298
Adding flit 96442 as NACK at time 5049
Additional hops: 2310
Adding flit 96595 as NACK at time 5063
Reenqueueing errored packet 96442 at time 5070
Additional hops: 2321
Adding flit 96986 as NACK at time 5077
Additional hops: 2328
Adding flit 97282 as NACK at time 5082
Additional hops: 2337
Adding flit 97219 as NACK at time 5087
Reenqueueing errored packet 96595 at time 5088
Reenqueueing errored packet 97282 at time 5097
Reenqueueing errored packet 96986 at time 5100
Reenqueueing errored packet 97219 at time 5106
Additional hops: 2342
Adding flit 97958 as NACK at time 5114
Reenqueueing errored packet 97958 at time 5125
Additional hops: 2350
Adding flit 98182 as NACK at time 5132
Additional hops: 2353
Adding flit 98608 as NACK at time 5139
Additional hops: 2359
Adding flit 98491 as NACK at time 5142
Reenqueueing errored packet 98608 at time 5146
Reenqueueing errored packet 98182 at time 5149
Additional hops: 2361
Adding flit 98845 as NACK at time 5149
Reenqueueing errored packet 98845 at time 5154
Reenqueueing errored packet 98491 at time 5155
Uncorrectable 3
Additional hops: 2376
Adding flit 98409 as NACK at time 5164
Additional hops: 2384
Adding flit 98875 as NACK at time 5168
Reenqueueing errored packet 98875 at time 5185
Additional hops: 2394
Adding flit 99117 as NACK at time 5188
Reenqueueing errored packet 98409 at time 5195
Additional hops: 2402
Adding flit 99406 as NACK at time 5196
Additional hops: 2412
Adding flit 99428 as NACK at time 5205
Additional hops: 2423
Adding flit 99479 as NACK at time 5208
Reenqueueing errored packet 99117 at time 5209
Reenqueueing errored packet 99406 at time 5213
Additional hops: 2432
Adding flit 99752 as NACK at time 5217
Reenqueueing errored packet 99428 at time 5226
Additional hops: 2438
Adding flit 100181 as NACK at time 5230
Reenqueueing errored packet 99479 at time 5231
Reenqueueing errored packet 99752 at time 5236
Additional hops: 2444
Adding flit 100369 as NACK at time 5241
Reenqueueing errored packet 100181 at time 5243
Additional hops: 2458
Adding flit 100034 as NACK at time 5246
Additional hops: 2472
Adding flit 100087 as NACK at time 5250
Additional hops: 2478
Adding flit 100565 as NACK at time 5252
Reenqueueing errored packet 100369 at time 5254
Additional hops: 2483
Adding flit 100773 as NACK at time 5260
Reenqueueing errored packet 100565 at time 5265
Reenqueueing errored packet 100773 at time 5271
Reenqueueing errored packet 100034 at time 5275
Reenqueueing errored packet 100087 at time 5279
Additional hops: 2495
Adding flit 101322 as NACK at time 5311
Additional hops: 2504
Adding flit 101472 as NACK at time 5312
Additional hops: 2514
Adding flit 101465 as NACK at time 5315
Additional hops: 2526
Adding flit 101463 as NACK at time 5322
Reenqueueing errored packet 101472 at time 5331
Additional hops: 2538
Adding flit 101742 as NACK at time 5334
Reenqueueing errored packet 101465 at time 5336
Reenqueueing errored packet 101322 at time 5336
Additional hops: 2549
Adding flit 101884 as NACK at time 5340
Reenqueueing errored packet 101463 at time 5347
Reenqueueing errored packet 101742 at time 5359
Reenqueueing errored packet 101884 at time 5363
Additional hops: 2556
Adding flit 102654 as NACK at time 5365
Uncorrectable 3
Additional hops: 2562
Adding flit 102890 as NACK at time 5374
Reenqueueing errored packet 102654 at time 5380
Reenqueueing errored packet 102890 at time 5387
Additional hops: 2568
Adding flit 103408 as NACK at time 5405
Additional hops: 2581
Adding flit 103085 as NACK at time 5406
Additional hops: 2591
Adding flit 103258 as NACK at time 5407
Reenqueueing errored packet 103408 at time 5418
Reenqueueing errored packet 103258 at time 5428
Reenqueueing errored packet 103085 at time 5433
Additional hops: 2595
Adding flit 104076 as NACK at time 5434
Reenqueueing errored packet 104076 at time 5443
Additional hops: 2603
Adding flit 104117 as NACK at time 5445
Reenqueueing errored packet 104117 at time 5462
Additional hops: 2610
Adding flit 104926 as NACK at time 5485
Additional hops: 2617
Adding flit 104969 as NACK at time 5489
Additional hops: 2627
Adding flit 104964 as NACK at time 5496
Reenqueueing errored packet 104926 at time 5500
Reenqueueing errored packet 104969 at time 5504
Reenqueueing errored packet 104964 at time 5517
Additional hops: 2631
Adding flit 105892 as NACK at time 5525
Additional hops: 2636
Adding flit 105945 as NACK at time 5531
Reenqueueing errored packet 105892 at time 5534
Reenqueueing errored packet 105945 at time 5542
Additional hops: 2648
Adding flit 105992 as NACK at time 5558
Additional hops: 2660
Adding flit 106134 as NACK at time 5562
Reenqueueing errored packet 105992 at time 5583
Reenqueueing errored packet 106134 at time 5587
Additional hops: 2671
Adding flit 106724 as NACK at time 5593
Additional hops: 2680
Adding flit 107097 as NACK at time 5610
Reenqueueing errored packet 106724 at time 5616
Additional hops: 2685
Adding flit 107591 as NACK at time 5621
Reenqueueing errored packet 107097 at time 5629
Reenqueueing errored packet 107591 at time 5632
Additional hops: 2692
Adding flit 108061 as NACK at time 5652
Additional hops: 2698
Adding flit 108283 as NACK at time 5663
Reenqueueing errored packet 108061 at time 5667
Reenqueueing errored packet 108283 at time 5676
Additional hops: 2708
Adding flit 108390 as NACK at time 5679
Reenqueueing errored packet 108390 at time 5700
Additional hops: 2717
Adding flit 108955 as NACK at time 5707
Additional hops: 2727
Adding flit 108973 as NACK at time 5709
Additional hops: 2733
Adding flit 109282 as NACK at time 5712
Reenqueueing errored packet 109282 at time 5725
Reenqueueing errored packet 108955 at time 5726
Reenqueueing errored packet 108973 at time 5730
Additional hops: 2740
Adding flit 110361 as NACK at time 5772
Additional hops: 2750
Adding flit 110268 as NACK at time 5776
Reenqueueing errored packet 110361 at time 5787
Reenqueueing errored packet 110268 at time 5797
Additional hops: 2757
Adding flit 110914 as NACK at time 5801
Additional hops: 2764
Adding flit 111004 as NACK at time 5805
Reenqueueing errored packet 110914 at time 5816
Reenqueueing errored packet 111004 at time 5820
Additional hops: 2772
Adding flit 112266 as NACK at time 5873
Additional hops: 2779
Adding flit 112448 as NACK at time 5882
Additional hops: 2785
Adding flit 112570 as NACK at time 5884
Reenqueueing errored packet 112266 at time 5890
Additional hops: 2790
Adding flit 112732 as NACK at time 5890
Reenqueueing errored packet 112570 at time 5897
Reenqueueing errored packet 112448 at time 5897
Reenqueueing errored packet 112732 at time 5901
Additional hops: 2799
Adding flit 113299 as NACK at time 5933
Additional hops: 2807
Adding flit 113619 as NACK at time 5944
Additional hops: 2814
Adding flit 113720 as NACK at time 5948
Reenqueueing errored packet 113299 at time 5952
Additional hops: 2823
Adding flit 113769 as NACK at time 5955
Additional hops: 2832
Adding flit 113803 as NACK at time 5958
Additional hops: 2839
Adding flit 113946 as NACK at time 5959
Reenqueueing errored packet 113619 at time 5961
Reenqueueing errored packet 113720 at time 5963
Additional hops: 2844
Adding flit 114248 as NACK at time 5970
Additional hops: 2855
Adding flit 113942 as NACK at time 5971
Additional hops: 2860
Adding flit 114256 as NACK at time 5972
Reenqueueing errored packet 113946 at time 5974
Reenqueueing errored packet 113769 at time 5974
Reenqueueing errored packet 113803 at time 5977
Reenqueueing errored packet 114248 at time 5981
Reenqueueing errored packet 114256 at time 5983
Additional hops: 2867
Adding flit 114388 as NACK at time 5983
Reenqueueing errored packet 113942 at time 5994
Additional hops: 2873
Adding flit 114677 as NACK at time 5997
Reenqueueing errored packet 114388 at time 5998
Reenqueueing errored packet 114677 at time 6010
Additional hops: 2880
Adding flit 115128 as NACK at time 6023
Additional hops: 2891
Adding flit 115073 as NACK at time 6032
Reenqueueing errored packet 115128 at time 6038
Reenqueueing errored packet 115073 at time 6055
Additional hops: 2904
Adding flit 115701 as NACK at time 6069
Additional hops: 2914
Adding flit 115930 as NACK at time 6075
Uncorrectable 3
Additional hops: 2922
Adding flit 116169 as NACK at time 6080
Additional hops: 2927
Adding flit 116403 as NACK at time 6082
Additional hops: 2936
Adding flit 116195 as NACK at time 6083
Reenqueueing errored packet 116403 at time 6093
Reenqueueing errored packet 115930 at time 6096
Reenqueueing errored packet 115701 at time 6096
Reenqueueing errored packet 116169 at time 6097
Reenqueueing errored packet 116195 at time 6102
Additional hops: 2942
Adding flit 116769 as NACK at time 6105
Reenqueueing errored packet 116769 at time 6118
Additional hops: 2949
Adding flit 116966 as NACK at time 6118
Reenqueueing errored packet 116966 at time 6133
Additional hops: 2955
Adding flit 117506 as NACK at time 6143
Additional hops: 2962
Adding flit 117530 as NACK at time 6145
Additional hops: 2971
Adding flit 117512 as NACK at time 6152
Reenqueueing errored packet 117506 at time 6156
Additional hops: 2979
Adding flit 117678 as NACK at time 6156
Reenqueueing errored packet 117530 at time 6160
Reenqueueing errored packet 117512 at time 6171
Reenqueueing errored packet 117678 at time 6173
Additional hops: 2989
Adding flit 117871 as NACK at time 6175
Additional hops: 2999
Adding flit 117929 as NACK at time 6177
Additional hops: 3004
Adding flit 118380 as NACK at time 6184
Reenqueueing errored packet 118380 at time 6195
Reenqueueing errored packet 117871 at time 6196
Reenqueueing errored packet 117929 at time 6198
Additional hops: 3011
Adding flit 118751 as NACK at time 6208
Reenqueueing errored packet 118751 at time 6223
Additional hops: 3016
Adding flit 119141 as NACK at time 6223
Additional hops: 3020
Adding flit 119240 as NACK at time 6225
Additional hops: 3029
Adding flit 118948 as NACK at time 6226
Additional hops: 3040
Adding flit 118883 as NACK at time 6231
Reenqueueing errored packet 119240 at time 6234
Reenqueueing errored packet 119141 at time 6234
Additional hops: 3047
Adding flit 119283 as NACK at time 6241
Additional hops: 3054
Adding flit 119434 as NACK at time 6244
Reenqueueing errored packet 118948 at time 6245
Reenqueueing errored packet 118883 at time 6254
Reenqueueing errored packet 119283 at time 6256
Reenqueueing errored packet 119434 at time 6259
Additional hops: 3057
Adding flit 121135 as NACK at time 6323
Reenqueueing errored packet 121135 at time 6330
Additional hops: 3066
Adding flit 121052 as NACK at time 6336
Reenqueueing errored packet 121052 at time 6355
Additional hops: 3072
Adding flit 121544 as NACK at time 6357
Additional hops: 3081
Adding flit 121539 as NACK at time 6362
Reenqueueing errored packet 121544 at time 6370
Reenqueueing errored packet 121539 at time 6381
Additional hops: 3084
Adding flit 122266 as NACK at time 6381
Additional hops: 3093
Adding flit 122010 as NACK at time 6385
Reenqueueing errored packet 122266 at time 6388
Reenqueueing errored packet 122010 at time 6404
Additional hops: 3103
Adding flit 122559 as NACK at time 6418
Additional hops: 3109
Adding flit 122893 as NACK at time 6419
Additional hops: 3117
Adding flit 122881 as NACK at time 6428
Reenqueueing errored packet 122893 at time 6432
Reenqueueing errored packet 122559 at time 6439
Additional hops: 3126
Adding flit 123117 as NACK at time 6440
Reenqueueing errored packet 122881 at time 6445
Reenqueueing errored packet 123117 at time 6459
Additional hops: 3132
Adding flit 124139 as NACK at time 6486
Reenqueueing errored packet 124139 at time 6499
Additional hops: 3138
Adding flit 124447 as NACK at time 6501
Additional hops: 3148
Adding flit 124255 as NACK at time 6504
Additional hops: 3156
Adding flit 124429 as NACK at time 6506
Reenqueueing errored packet 124447 at time 6514
Reenqueueing errored packet 124429 at time 6523
Reenqueueing errored packet 124255 at time 6525
Additional hops: 3170
Adding flit 124639 as NACK at time 6539
Reenqueueing errored packet 124639 at time 6568
Additional hops: 3180
Adding flit 125516 as NACK at time 6573
Additional hops: 3187
Adding flit 125685 as NACK at time 6577
Additional hops: 3192
Adding flit 125864 as NACK at time 6580
Reenqueueing errored packet 125864 at time 6591
Reenqueueing errored packet 125685 at time 6592
Reenqueueing errored packet 125516 at time 6594
Additional hops: 3196
Adding flit 126595 as NACK at time 6610
Additional hops: 3203
Adding flit 126432 as NACK at time 6613
Reenqueueing errored packet 126595 at time 6619
Additional hops: 3214
Adding flit 126307 as NACK at time 6619
Additional hops: 3224
Adding flit 126465 as NACK at time 6621
Reenqueueing errored packet 126432 at time 6628
Uncorrectable 3
Additional hops: 3231
Adding flit 126738 as NACK at time 6629
Reenqueueing errored packet 126465 at time 6642
Reenqueueing errored packet 126307 at time 6642
Reenqueueing errored packet 126738 at time 6644
Additional hops: 3238
Adding flit 127187 as NACK at time 6654
Reenqueueing errored packet 127187 at time 6669
Additional hops: 3246
Adding flit 128106 as NACK at time 6702
Reenqueueing errored packet 128106 at time 6719
Additional hops: 3249
Adding flit 129304 as NACK at time 6746
Additional hops: 3260
Adding flit 128818 as NACK at time 6748
Reenqueueing errored packet 129304 at time 6753
Additional hops: 3267
Adding flit 129230 as NACK at time 6753
Additional hops: 3276
Adding flit 129307 as NACK at time 6763
Reenqueueing errored packet 129230 at time 6768
Reenqueueing errored packet 128818 at time 6771
Reenqueueing errored packet 129307 at time 6782
Additional hops: 3283
Adding flit 129832 as NACK at time 6787
Additional hops: 3294
Adding flit 129659 as NACK at time 6793
Uncorrectable 3
Additional hops: 3299
Adding flit 130144 as NACK at time 6796
Reenqueueing errored packet 129832 at time 6802
Reenqueueing errored packet 130144 at time 6807
Reenqueueing errored packet 129659 at time 6816
Additional hops: 3307
Adding flit 130404 as NACK at time 6818
Additional hops: 3313
Adding flit 130486 as NACK at time 6819
Additional hops: 3324
Adding flit 130323 as NACK at time 6823
Additional hops: 3332
Adding flit 130564 as NACK at time 6830
Reenqueueing errored packet 130486 at time 6832
Additional hops: 3341
Adding flit 130585 as NACK at time 6833
Reenqueueing errored packet 130404 at time 6835
Reenqueueing errored packet 130323 at time 6846
Reenqueueing errored packet 130564 at time 6847
Reenqueueing errored packet 130585 at time 6852
Additional hops: 3344
Adding flit 131646 as NACK at time 6867
Reenqueueing errored packet 131646 at time 6874
Uncorrectable 3
Additional hops: 3349
Adding flit 131865 as NACK at time 6886
Reenqueueing errored packet 131865 at time 6897
Additional hops: 3358
Adding flit 132896 as NACK at time 6954
Additional hops: 3367
Adding flit 132960 as NACK at time 6955
Additional hops: 3376
Adding flit 132935 as NACK at time 6958
Additional hops: 3382
Adding flit 133302 as NACK at time 6964
Additional hops: 3388
Adding flit 133381 as NACK at time 6969
Reenqueueing errored packet 132896 at time 6973
Reenqueueing errored packet 132960 at time 6974
Reenqueueing errored packet 133302 at time 6977
Reenqueueing errored packet 132935 at time 6977
Reenqueueing errored packet 133381 at time 6982
Additional hops: 3397
Adding flit 133460 as NACK at time 6982
Reenqueueing errored packet 133460 at time 7001
Additional hops: 3404
Adding flit 134322 as NACK at time 7019
Additional hops: 3406
Adding flit 134677 as NACK at time 7024
Reenqueueing errored packet 134677 at time 7029
Reenqueueing errored packet 134322 at time 7034
Additional hops: 3412
Adding flit 134935 as NACK at time 7052
Additional hops: 3419
Adding flit 134877 as NACK at time 7053
Additional hops: 3423
Adding flit 135267 as NACK at time 7064
Reenqueueing errored packet 134935 at time 7065
Reenqueueing errored packet 134877 at time 7068
Reenqueueing errored packet 135267 at time 7073
Additional hops: 3429
Adding flit 135556 as NACK at time 7083
Additional hops: 3435
Adding flit 135645 as NACK at time 7088
Reenqueueing errored packet 135556 at time 7096
Reenqueueing errored packet 135645 at time 7101
Additional hops: 3441
Adding flit 137078 as NACK at time 7163
Additional hops: 3452
Adding flit 137034 as NACK at time 7174
Reenqueueing errored packet 137078 at time 7176
Additional hops: 3460
Adding flit 137401 as NACK at time 7184
Additional hops: 3472
Adding flit 137155 as NACK at time 7185
Reenqueueing errored packet 137034 at time 7197
Reenqueueing errored packet 137401 at time 7201
Reenqueueing errored packet 137155 at time 7210
Additional hops: 3478
Adding flit 138165 as NACK at time 7218
Additional hops: 3488
Adding flit 138071 as NACK at time 7225
Reenqueueing errored packet 138165 at time 7231
Additional hops: 3494
Adding flit 138653 as NACK at time 7245
Reenqueueing errored packet 138071 at time 7246
Additional hops: 3506
Adding flit 138499 as NACK at time 7254
Reenqueueing errored packet 138653 at time 7258
Reenqueueing errored packet 138499 at time 7279
Additional hops: 3511
Adding flit 139584 as NACK at time 7289
Reenqueueing errored packet 139584 at time 7300
Additional hops: 3517
Adding flit 139755 as NACK at time 7302
Reenqueueing errored packet 139755 at time 7315
Additional hops: 3526
Adding flit 139950 as NACK at time 7321
Reenqueueing errored packet 139950 at time 7340
Additional hops: 3532
Adding flit 140595 as NACK at time 7346
Additional hops: 3540
Adding flit 140681 as NACK at time 7357
Reenqueueing errored packet 140595 at time 7359
Additional hops: 3548
Adding flit 140754 as NACK at time 7365
Reenqueueing errored packet 140681 at time 7374
Reenqueueing errored packet 140754 at time 7382
Additional hops: 3558
Adding flit 141519 as NACK at time 7407
Additional hops: 3568
Adding flit 141674 as NACK at time 7413
Reenqueueing errored packet 141519 at time 7428
Reenqueueing errored packet 141674 at time 7434
Additional hops: 3572
Adding flit 142423 as NACK at time 7434
Additional hops: 3575
Adding flit 142527 as NACK at time 7436
Additional hops: 3583
Adding flit 142186 as NACK at time 7436
Uncorrectable 3
Additional hops: 3593
Adding flit 142115 as NACK at time 7438
Reenqueueing errored packet 142527 at time 7443
Reenqueueing errored packet 142423 at time 7443
Additional hops: 3600
Adding flit 142552 as NACK at time 7450
Reenqueueing errored packet 142186 at time 7453
Reenqueueing errored packet 142115 at time 7459
Reenqueueing errored packet 142552 at time 7465
Additional hops: 3610
Adding flit 142622 as NACK at time 7465
Additional hops: 3617
Adding flit 142807 as NACK at time 7466
Additional hops: 3627
Adding flit 142781 as NACK at time 7471
Reenqueueing errored packet 142807 at time 7481
Reenqueueing errored packet 142622 at time 7486
Additional hops: 3634
Adding flit 143302 as NACK at time 7488
Reenqueueing errored packet 142781 at time 7492
Additional hops: 3637
Adding flit 143771 as NACK at time 7498
Reenqueueing errored packet 143302 at time 7503
Reenqueueing errored packet 143771 at time 7505
Additional hops: 3644
Adding flit 143927 as NACK at time 7519
Additional hops: 3654
Adding flit 143932 as NACK at time 7528
Reenqueueing errored packet 143927 at time 7534
Additional hops: 3663
Adding flit 144100 as NACK at time 7536
Additional hops: 3670
Adding flit 144244 as NACK at time 7537
Reenqueueing errored packet 143932 at time 7549
Reenqueueing errored packet 144244 at time 7552
Reenqueueing errored packet 144100 at time 7555
Additional hops: 3680
Adding flit 144654 as NACK at time 7567
Reenqueueing errored packet 144654 at time 7588
Additional hops: 3686
Adding flit 145419 as NACK at time 7595
Additional hops: 3696
Adding flit 145417 as NACK at time 7607
Reenqueueing errored packet 145419 at time 7608
Additional hops: 3709
Adding flit 145356 as NACK at time 7614
Additional hops: 3715
Adding flit 145823 as NACK at time 7617
Additional hops: 3725
Adding flit 145568 as NACK at time 7617
Reenqueueing errored packet 145417 at time 7628
Reenqueueing errored packet 145823 at time 7630
Additional hops: 3738
Adding flit 145646 as NACK at time 7631
Additional hops: 3748
Adding flit 145976 as NACK at time 7635
Additional hops: 3752
Adding flit 146339 as NACK at time 7635
Reenqueueing errored packet 145568 at time 7638
Reenqueueing errored packet 145356 at time 7641
Additional hops: 3764
Adding flit 146002 as NACK at time 7643
Reenqueueing errored packet 146339 at time 7644
Additional hops: 3774
Adding flit 146170 as NACK at time 7649
Reenqueueing errored packet 145976 at time 7656
Reenqueueing errored packet 145646 at time 7658
Additional hops: 3783
Adding flit 146507 as NACK at time 7659
Reenqueueing errored packet 146002 at time 7668
Additional hops: 3795
Adding flit 146424 as NACK at time 7668
Reenqueueing errored packet 146170 at time 7670
Reenqueueing errored packet 146507 at time 7678
Reenqueueing errored packet 146424 at time 7693
Additional hops: 3805
Adding flit 147180 as NACK at time 7698
Additional hops: 3811
Adding flit 147388 as NACK at time 7698
Additional hops: 3819
Adding flit 147361 as NACK at time 7700
Reenqueueing errored packet 147388 at time 7711
Reenqueueing errored packet 147361 at time 7717
Reenqueueing errored packet 147180 at time 7719
Additional hops: 3826
Adding flit 149118 as NACK at time 7794
Additional hops: 3838
Adding flit 148838 as NACK at time 7797
Additional hops: 3845
Adding flit 149331 as NACK at time 7801
Reenqueueing errored packet 149118 at time 7809
Reenqueueing errored packet 149331 at time 7816
Additional hops: 3851
Adding flit 149670 as NACK at time 7817
Reenqueueing errored packet 148838 at time 7822
Additional hops: 3856
Adding flit 149870 as NACK at time 7824
Reenqueueing errored packet 149670 at time 7830
Additional hops: 3860
Adding flit 150097 as NACK at time 7834
Reenqueueing errored packet 149870 at time 7835
Additional hops: 3866
Adding flit 150041 as NACK at time 7837
Reenqueueing errored packet 150097 at time 7843
Reenqueueing errored packet 150041 at time 7850
Additional hops: 3873
Adding flit 150379 as NACK at time 7858
Additional hops: 3881
Adding flit 150545 as NACK at time 7871
Reenqueueing errored packet 150379 at time 7873
Additional hops: 3887
Adding flit 150783 as NACK at time 7874
Reenqueueing errored packet 150783 at time 7887
Reenqueueing errored packet 150545 at time 7888
Additional hops: 3895
Adding flit 151456 as NACK at time 7917
Additional hops: 3904
Adding flit 151480 as NACK at time 7922
Additional hops: 3913
Adding flit 151640 as NACK at time 7930
Reenqueueing errored packet 151456 at time 7934
Reenqueueing errored packet 151480 at time 7941
Reenqueueing errored packet 151640 at time 7949
Additional hops: 3928
Adding flit 151781 as NACK at time 7957
Additional hops: 3936
Adding flit 152438 as NACK at time 7965
Additional hops: 3939
Adding flit 152843 as NACK at time 7971
Reenqueueing errored packet 152843 at time 7978
Reenqueueing errored packet 152438 at time 7982
Reenqueueing errored packet 151781 at time 7988
Additional hops: 3949
Adding flit 152934 as NACK at time 7999
Additional hops: 3954
Adding flit 153314 as NACK at time 8002
Additional hops: 3965
Adding flit 153065 as NACK at time 8012
Reenqueueing errored packet 153314 at time 8013
Reenqueueing errored packet 152934 at time 8020
Additional hops: 3976
Adding flit 153360 as NACK at time 8021
Reenqueueing errored packet 153065 at time 8035
Reenqueueing errored packet 153360 at time 8044
Additional hops: 3986
Adding flit 154000 as NACK at time 8054
Additional hops: 3998
Adding flit 153810 as NACK at time 8054
Additional hops: 4006
Adding flit 154225 as NACK at time 8058
Additional hops: 4013
Adding flit 154611 as NACK at time 8074
Reenqueueing errored packet 154225 at time 8075
Reenqueueing errored packet 154000 at time 8075
Reenqueueing errored packet 153810 at time 8079
Reenqueueing errored packet 154611 at time 8089
Additional hops: 4019
Adding flit 155136 as NACK at time 8099
Additional hops: 4027
Adding flit 155092 as NACK at time 8103
Additional hops: 4036
Adding flit 155131 as NACK at time 8108
Additional hops: 4044
Adding flit 155255 as NACK at time 8111
Reenqueueing errored packet 155136 at time 8112
Additional hops: 4048
Adding flit 155480 as NACK at time 8112
Reenqueueing errored packet 155092 at time 8120
Reenqueueing errored packet 155480 at time 8121
Additional hops: 4057
Adding flit 155464 as NACK at time 8125
Reenqueueing errored packet 155131 at time 8127
Reenqueueing errored packet 155255 at time 8128
Additional hops: 4069
Adding flit 155136 as NACK at time 8133
Reenqueueing errored packet 155464 at time 8144
Reenqueueing errored packet 155136 at time 8158
Additional hops: 4081
Adding flit 155929 as NACK at time 8161
Additional hops: 4087
Adding flit 156687 as NACK at time 8178
Additional hops: 4092
Adding flit 156876 as NACK at time 8185
Reenqueueing errored packet 155929 at time 8186
Reenqueueing errored packet 156687 at time 8191
Reenqueueing errored packet 156876 at time 8196
Additional hops: 4101
Adding flit 156936 as NACK at time 8199
Uncorrectable 3
Additional hops: 4105
Adding flit 157341 as NACK at time 8207
Reenqueueing errored packet 157341 at time 8216
Reenqueueing errored packet 156936 at time 8218
Additional hops: 4112
Adding flit 157804 as NACK at time 8240
Additional hops: 4119
Adding flit 157878 as NACK at time 8244
Reenqueueing errored packet 157804 at time 8255
Reenqueueing errored packet 157878 at time 8259
Uncorrectable 3
Additional hops: 4132
Adding flit 157919 as NACK at time 8266
Additional hops: 4141
Adding flit 158195 as NACK at time 8268
Additional hops: 4148
Adding flit 158378 as NACK at time 8271
Reenqueueing errored packet 158378 at time 8286
Reenqueueing errored packet 158195 at time 8287
Reenqueueing errored packet 157919 at time 8293
Additional hops: 4150
Adding flit 159185 as NACK at time 8299
Reenqueueing errored packet 159185 at time 8304
Additional hops: 4152
Adding flit 159421 as NACK at time 8311
Reenqueueing errored packet 159421 at time 8316
Additional hops: 4159
Adding flit 159908 as NACK at time 8354
Reenqueueing errored packet 159908 at time 8369
Additional hops: 4165
Adding flit 160388 as NACK at time 8372
Reenqueueing errored packet 160388 at time 8385
Additional hops: 4175
Adding flit 160491 as NACK at time 8389
Additional hops: 4182
Adding flit 160812 as NACK at time 8395
Reenqueueing errored packet 160812 at time 8410
Reenqueueing errored packet 160491 at time 8410
Additional hops: 4187
Adding flit 161478 as NACK at time 8428
Additional hops: 4194
Adding flit 161588 as NACK at time 8437
Reenqueueing errored packet 161478 at time 8439
Additional hops: 4199
Adding flit 161782 as NACK at time 8444
Additional hops: 4207
Adding flit 161523 as NACK at time 8444
Reenqueueing errored packet 161588 at time 8452
Uncorrectable 3
Additional hops: 4215
Adding flit 161855 as NACK at time 8454
Reenqueueing errored packet 161782 at time 8455
Reenqueueing errored packet 161523 at time 8461
Reenqueueing errored packet 161855 at time 8471
Additional hops: 4225
Adding flit 162024 as NACK at time 8471
Uncorrectable 3
Additional hops: 4231
Adding flit 162556 as NACK at time 8484
Reenqueueing errored packet 162024 at time 8492
Reenqueueing errored packet 162556 at time 8497
Additional hops: 4239
Adding flit 163667 as NACK at time 8545
Additional hops: 4252
Adding flit 163466 as NACK at time 8550
Reenqueueing errored packet 163667 at time 8562
Reenqueueing errored packet 163466 at time 8577
Uncorrectable 3
Additional hops: 4257
Adding flit 164636 as NACK at time 8588
Reenqueueing errored packet 164636 at time 8599
Additional hops: 4269
Adding flit 164603 as NACK at time 8614
Additional hops: 4281
Adding flit 164988 as NACK at time 8629
Reenqueueing errored packet 164603 at time 8639
Reenqueueing errored packet 164988 at time 8654
Additional hops: 4291
Adding flit 166005 as NACK at time 8676
Additional hops: 4304
Adding flit 165819 as NACK at time 8680
Additional hops: 4313
Adding flit 166233 as NACK at time 8689
Reenqueueing errored packet 166005 at time 8697
Reenqueueing errored packet 165819 at time 8707
Reenqueueing errored packet 166233 at time 8708
Additional hops: 4322
Adding flit 167926 as NACK at time 8773
Reenqueueing errored packet 167926 at time 8792
Additional hops: 4327
Adding flit 168690 as NACK at time 8799
Additional hops: 4335
Adding flit 168556 as NACK at time 8800
Reenqueueing errored packet 168690 at time 8810
Additional hops: 4346
Adding flit 168571 as NACK at time 8812
Reenqueueing errored packet 168556 at time 8817
Additional hops: 4351
Adding flit 169175 as NACK at time 8823
Reenqueueing errored packet 169175 at time 8834
Reenqueueing errored packet 168571 at time 8835
Additional hops: 4358
Adding flit 169380 as NACK at time 8840
Reenqueueing errored packet 169380 at time 8855
Additional hops: 4364
Adding flit 169751 as NACK at time 8859
Reenqueueing errored packet 169751 at time 8872
Additional hops: 4371
Adding flit 170271 as NACK at time 8886
Reenqueueing errored packet 170271 at time 8901
Additional hops: 4375
Adding flit 170759 as NACK at time 8903
Additional hops: 4384
Adding flit 170500 as NACK at time 8904
Additional hops: 4390
Adding flit 170694 as NACK at time 8907
Additional hops: 4396
Adding flit 170689 as NACK at time 8907
Reenqueueing errored packet 170759 at time 8912
Reenqueueing errored packet 170689 at time 8920
Reenqueueing errored packet 170694 at time 8920
Reenqueueing errored packet 170500 at time 8923
Additional hops: 4402
Adding flit 171123 as NACK at time 8928
Reenqueueing errored packet 171123 at time 8941
Additional hops: 4412
Adding flit 171381 as NACK at time 8953
Reenqueueing errored packet 171381 at time 8974
Additional hops: 4422
Adding flit 172053 as NACK at time 8986
Reenqueueing errored packet 172053 at time 9007
Additional hops: 4433
Adding flit 172425 as NACK at time 9009
Additional hops: 4440
Adding flit 172943 as NACK at time 9023
Reenqueueing errored packet 172425 at time 9032
Reenqueueing errored packet 172943 at time 9038
Additional hops: 4445
Adding flit 173480 as NACK at time 9047
Additional hops: 4451
Adding flit 173465 as NACK at time 9049
Additional hops: 4460
Adding flit 173204 as NACK at time 9049
Additional hops: 4469
Adding flit 173407 as NACK at time 9055
Reenqueueing errored packet 173480 at time 9058
Reenqueueing errored packet 173465 at time 9062
Reenqueueing errored packet 173204 at time 9068
Reenqueueing errored packet 173407 at time 9074
Additional hops: 4474
Adding flit 174366 as NACK at time 9092
Additional hops: 4481
Adding flit 174222 as NACK at time 9092
Reenqueueing errored packet 174366 at time 9103
Reenqueueing errored packet 174222 at time 9107
Additional hops: 4489
Adding flit 175338 as NACK at time 9153
Additional hops: 4499
Adding flit 175503 as NACK at time 9167
Reenqueueing errored packet 175338 at time 9170
Reenqueueing errored packet 175503 at time 9188
Additional hops: 4507
Adding flit 176134 as NACK at time 9198
Additional hops: 4511
Adding flit 176569 as NACK at time 9203
Reenqueueing errored packet 176569 at time 9212
Reenqueueing errored packet 176134 at time 9215
Additional hops: 4514
Adding flit 176951 as NACK at time 9219
Reenqueueing errored packet 176951 at time 9226
Additional hops: 4526
Adding flit 176721 as NACK at time 9238
Additional hops: 4529
Adding flit 177358 as NACK at time 9240
Reenqueueing errored packet 177358 at time 9247
Additional hops: 4537
Adding flit 177172 as NACK at time 9247
Additional hops: 4545
Adding flit 177301 as NACK at time 9255
Reenqueueing errored packet 176721 at time 9263
Reenqueueing errored packet 177172 at time 9264
Reenqueueing errored packet 177301 at time 9272
Additional hops: 4550
Adding flit 178025 as NACK at time 9281
Additional hops: 4561
Adding flit 177697 as NACK at time 9283
Reenqueueing errored packet 178025 at time 9292
Additional hops: 4569
Adding flit 178069 as NACK at time 9295
Additional hops: 4582
Adding flit 177890 as NACK at time 9305
Reenqueueing errored packet 177697 at time 9306
Reenqueueing errored packet 178069 at time 9312
Additional hops: 4589
Adding flit 178548 as NACK at time 9322
Additional hops: 4595
Adding flit 178645 as NACK at time 9324
Reenqueueing errored packet 177890 at time 9332
Reenqueueing errored packet 178645 at time 9337
Reenqueueing errored packet 178548 at time 9337
Additional hops: 4606
Adding flit 178996 as NACK at time 9350
Additional hops: 4618
Adding flit 178986 as NACK at time 9353
Additional hops: 4624
Adding flit 179515 as NACK at time 9361
Reenqueueing errored packet 178996 at time 9373
Reenqueueing errored packet 179515 at time 9374
Additional hops: 4630
Adding flit 179784 as NACK at time 9374
Reenqueueing errored packet 178986 at time 9378
Reenqueueing errored packet 179784 at time 9387
Additional hops: 4639
Adding flit 180009 as NACK at time 9397
Additional hops: 4647
Adding flit 180036 as NACK at time 9397
Additional hops: 4657
Adding flit 180108 as NACK at time 9405
Reenqueueing errored packet 180036 at time 9414
Additional hops: 4668
Adding flit 180247 as NACK at time 9415
Reenqueueing errored packet 180009 at time 9416
Additional hops: 4675
Adding flit 180516 as NACK at time 9416
Reenqueueing errored packet 180108 at time 9426
Reenqueueing errored packet 180516 at time 9431
Additional hops: 4685
Adding flit 180627 as NACK at time 9431
Reenqueueing errored packet 180247 at time 9438
Uncorrectable 3
Additional hops: 4692
Adding flit 181020 as NACK at time 9442
Additional hops: 4699
Adding flit 181070 as NACK at time 9449
Reenqueueing errored packet 180627 at time 9452
Additional hops: 4702
Adding flit 181512 as NACK at time 9455
Additional hops: 4708
Adding flit 181260 as NACK at time 9456
Reenqueueing errored packet 181020 at time 9457
Reenqueueing errored packet 181512 at time 9462
Reenqueueing errored packet 181070 at time 9464
Additional hops: 4716
Adding flit 181345 as NACK at time 9464
Reenqueueing errored packet 181260 at time 9469
Additional hops: 4722
Adding flit 181667 as NACK at time 9472
Additional hops: 4727
Adding flit 181784 as NACK at time 9475
Reenqueueing errored packet 181345 at time 9481
Reenqueueing errored packet 181667 at time 9485
Reenqueueing errored packet 181784 at time 9486
Additional hops: 4734
Adding flit 182657 as NACK at time 9526
Additional hops: 4740
Adding flit 182812 as NACK at time 9530
Additional hops: 4747
Adding flit 182798 as NACK at time 9534
Reenqueueing errored packet 182657 at time 9541
Reenqueueing errored packet 182812 at time 9543
Additional hops: 4754
Adding flit 183020 as NACK at time 9544
Reenqueueing errored packet 182798 at time 9549
Reenqueueing errored packet 183020 at time 9559
Additional hops: 4759
Adding flit 183662 as NACK at time 9572
Reenqueueing errored packet 183662 at time 9583
Additional hops: 4764
Adding flit 183843 as NACK at time 9584
Additional hops: 4776
Adding flit 183375 as NACK at time 9585
Additional hops: 4786
Adding flit 183586 as NACK at time 9586
Reenqueueing errored packet 183843 at time 9595
Additional hops: 4794
Adding flit 183929 as NACK at time 9596
Additional hops: 4801
Adding flit 184168 as NACK at time 9604
Reenqueueing errored packet 183586 at time 9607
Reenqueueing errored packet 183375 at time 9610
Reenqueueing errored packet 183929 at time 9613
Additional hops: 4808
Adding flit 184384 as NACK at time 9616
Reenqueueing errored packet 184168 at time 9619
Additional hops: 4811
Adding flit 184877 as NACK at time 9628
Additional hops: 4819
Adding flit 184510 as NACK at time 9628
Reenqueueing errored packet 184384 at time 9631
Reenqueueing errored packet 184877 at time 9635
Reenqueueing errored packet 184510 at time 9645
Additional hops: 4830
Adding flit 184784 as NACK at time 9649
Additional hops: 4840
Adding flit 184990 as NACK at time 9658
Reenqueueing errored packet 184784 at time 9672
Reenqueueing errored packet 184990 at time 9679
Additional hops: 4849
Adding flit 185495 as NACK at time 9679
Additional hops: 4855
Adding flit 185911 as NACK at time 9690
Reenqueueing errored packet 185495 at time 9698
Reenqueueing errored packet 185911 at time 9703
Additional hops: 4866
Adding flit 187413 as NACK at time 9787
Additional hops: 4870
Adding flit 188151 as NACK at time 9805
Reenqueueing errored packet 187413 at time 9810
Reenqueueing errored packet 188151 at time 9814
Additional hops: 4880
Adding flit 188054 as NACK at time 9821
Additional hops: 4888
Adding flit 188315 as NACK at time 9822
Reenqueueing errored packet 188315 at time 9839
Reenqueueing errored packet 188054 at time 9842
Additional hops: 4895
Adding flit 188964 as NACK at time 9854
Reenqueueing errored packet 188964 at time 9869
Additional hops: 4901
Adding flit 189917 as NACK at time 9899
Additional hops: 4910
Adding flit 189780 as NACK at time 9903
Reenqueueing errored packet 189917 at time 9912
Additional hops: 4920
Adding flit 190029 as NACK at time 9919
Additional hops: 4933
Adding flit 189860 as NACK at time 9920
Reenqueueing errored packet 189780 at time 9922
Additional hops: 4940
Adding flit 190277 as NACK at time 9922
Additional hops: 4951
Adding flit 190244 as NACK at time 9933
Reenqueueing errored packet 190277 at time 9937
Reenqueueing errored packet 190029 at time 9940
Reenqueueing errored packet 189860 at time 9947
Reenqueueing errored packet 190244 at time 9956
Additional hops: 4963
Adding flit 190591 as NACK at time 9956
Additional hops: 4969
Adding flit 191067 as NACK at time 9963
Additional hops: 4978
Adding flit 191145 as NACK at time 9972
Additional hops: 4984
Adding flit 191330 as NACK at time 9973
Reenqueueing errored packet 191067 at time 9976
Reenqueueing errored packet 190591 at time 9981
Additional hops: 4990
Adding flit 191500 as NACK at time 9982
Reenqueueing errored packet 191330 at time 9986
9988 | node58 | Enqueuing flit 192022 (packet 192022) at time 9988.
9988 | traffic_manager | Finding output VC for flit 192022:
9988 | traffic_manager |   Selected output VC 0.
9988 | network_0/router_7_2 | Adding VC range [0,1] at output port 0 for flit 192022 (input port 4, destination 44).
9988 | node58 | Generating lookahead routing info for flit 192022.
9988 | node58 | Injecting flit 192022 into subnet 0 at time 9988 with priority 0.
9989 | network_0/network_0_fchan_ingress58 | Beginning channel traversal for flit 192022 with delay 1.
9989 | network_0/network_0_fchan_ingress58 | Completed channel traversal for flit 192022.
9990 | network_0/router_7_2 | Received flit 192022 from channel at input 4.
9990 | network_0/router_7_2 | Adding flit 192022 to VC 0 at input 4 (state: idle, empty).
9990 | network_0/router_7_2 | Using precomputed lookahead routing information for VC 0 at input 4 (front: 192022).
9990 | network_0/router_7_2/buf_4/vc_0 | Changing state from idle to vc_alloc.
9990 | network_0/router_7_2 | Beginning VC allocation for VC 0 at input 4 (front: 192022).
9990 | network_0/router_7_2 |   Requesting VC 0 at output 0 (in_pri: 0, out_pri: 0).
9990 | network_0/router_7_2 |   Requesting VC 1 at output 0 (in_pri: 0, out_pri: 0).
9990 | network_0/router_7_2/vc_allocator | Input requests = [ 0 -> [ 6@0 7@0 ]  6 -> [ 8@0 9@0 ]  8 -> [ 0@0 1@0 ]  ], output requests = [ 0 -> [ 8@0 ]  1 -> [ 8@0 ]  6 -> [ 0@0 ]  7 -> [ 0@0 ]  8 -> [ 6@0 ]  9 -> [ 6@0 ]  ].
9990 | network_0/router_7_2/vc_allocator | Input grants = [ 0 -> 6  6 -> 8  8 -> 1  ], output grants = [ 1 -> 8  6 -> 0  8 -> 6  ].
9990 | network_0/router_7_2 | Assigning VC 1 at output 0 to VC 0 at input 4.
9990 | network_0/router_7_2 | Completed VC allocation for VC 0 at input 4 (front: 192022).
9990 | network_0/router_7_2 |   Acquiring assigned VC 1 at output 0.
9990 | network_0/router_7_2/buf_4/vc_0 | Changing state from vc_alloc to active.
9990 | network_0/router_7_2 | Beginning switch allocation for VC 0 at input 4 (front: 192022).
9990 | network_0/router_7_2 |   Requesting output 0.0 (non-spec, pri: 0).
9990 | network_0/router_7_2/sw_allocator | Input requests = [ 0 -> [ 3@0 ]  3 -> [ 4@0 ]  4 -> [ 0@0 ]  ], output requests = [ 0 -> [ 4@0 ]  3 -> [ 0@0 ]  4 -> [ 3@0 ]  ].
9990 | network_0/router_7_2/sw_allocator | Input grants = [ 0 -> 3  3 -> 4  4 -> 0  ], output grants = [ 0 -> 4  3 -> 0  4 -> 3  ].
9990 | network_0/router_7_2 | Assigning output 0.0 to VC 0 at input 4.0.
9990 | network_0/router_7_2 | Completed switch allocation for VC 0 at input 4 (front: 192022).
9990 | network_0/router_7_2 |   Scheduling switch connection from input 4.0 to output 0.0.
9990 | network_0/router_7_2 | Updating lookahead routing information for flit 192022.
9990 | network_0/router_7_3 | Adding VC range [0,1] at output port 0 for flit 192022 (input port 1, destination 44).
Reenqueueing errored packet 191145 at time 9991
9991 | network_0/router_7_2 | Beginning crossbar traversal for flit 192022 from input 4.0 to output 0.0.
9991 | network_0/router_7_2 | Completed crossbar traversal for flit 192022 from input 4.0 to output 0.0.
9991 | network_0/router_7_2 | Buffering flit 192022 at output 0.
9991 | network_0/router_7_2 | Sending flit 192022 to channel at output 0.
9992 | network_0/network_0_fchan_232 | Beginning channel traversal for flit 192022 with delay 1.
9992 | network_0/network_0_fchan_232 | Completed channel traversal for flit 192022.
9993 | network_0/router_7_3 | Received flit 192022 from channel at input 1.
9993 | network_0/router_7_3 | Adding flit 192022 to VC 1 at input 1 (state: idle, empty).
9993 | network_0/router_7_3 | Using precomputed lookahead routing information for VC 1 at input 1 (front: 192022).
9993 | network_0/router_7_3/buf_1/vc_1 | Changing state from idle to vc_alloc.
9993 | network_0/router_7_3 | Beginning VC allocation for VC 1 at input 1 (front: 192022).
9993 | network_0/router_7_3 |   Requesting VC 0 at output 0 (in_pri: 0, out_pri: 0).
9993 | network_0/router_7_3 |   Requesting VC 1 at output 0 (in_pri: 0, out_pri: 0).
9993 | network_0/router_7_3/vc_allocator | Input requests = [ 3 -> [ 0@0 1@0 ]  6 -> [ 8@0 9@0 ]  8 -> [ 3@0 ]  ], output requests = [ 0 -> [ 3@0 ]  1 -> [ 3@0 ]  3 -> [ 8@0 ]  8 -> [ 6@0 ]  9 -> [ 6@0 ]  ].
9993 | network_0/router_7_3/vc_allocator | Input grants = [ 3 -> 0  6 -> 9  8 -> 3  ], output grants = [ 0 -> 3  3 -> 8  9 -> 6  ].
9993 | network_0/router_7_3 | Assigning VC 0 at output 0 to VC 1 at input 1.
9993 | network_0/router_7_3 | Completed VC allocation for VC 1 at input 1 (front: 192022).
9993 | network_0/router_7_3 |   Acquiring assigned VC 0 at output 0.
9993 | network_0/router_7_3/buf_1/vc_1 | Changing state from vc_alloc to active.
9993 | network_0/router_7_3 | Beginning switch allocation for VC 1 at input 1 (front: 192022).
9993 | network_0/router_7_3 |   Requesting output 0.0 (non-spec, pri: 0).
9993 | network_0/router_7_3/sw_allocator | Input requests = [ 1 -> [ 0@0 ]  3 -> [ 4@0 ]  4 -> [ 1@0 ]  ], output requests = [ 0 -> [ 1@0 ]  1 -> [ 4@0 ]  4 -> [ 3@0 ]  ].
9993 | network_0/router_7_3/sw_allocator | Input grants = [ 1 -> 0  3 -> 4  4 -> 1  ], output grants = [ 0 -> 1  1 -> 4  4 -> 3  ].
9993 | network_0/router_7_3 | Assigning output 0.0 to VC 1 at input 1.0.
9993 | network_0/router_7_3 | Completed switch allocation for VC 1 at input 1 (front: 192022).
9993 | network_0/router_7_3 |   Scheduling switch connection from input 1.0 to output 0.0.
9993 | network_0/router_7_3 | Updating lookahead routing information for flit 192022.
9993 | network_0/router_7_4 | Adding VC range [0,1] at output port 3 for flit 192022 (input port 1, destination 44).
9994 | network_0/router_7_3 | Beginning crossbar traversal for flit 192022 from input 1.0 to output 0.0.
9994 | network_0/router_7_3 | Completed crossbar traversal for flit 192022 from input 1.0 to output 0.0.
9994 | network_0/router_7_3 | Buffering flit 192022 at output 0.
9994 | network_0/router_7_3 | Sending flit 192022 to channel at output 0.
9995 | network_0/network_0_fchan_236 | Beginning channel traversal for flit 192022 with delay 1.
Reenqueueing errored packet 191500 at time 9995
9995 | network_0/network_0_fchan_236 | Completed channel traversal for flit 192022.
9996 | network_0/router_7_4 | Received flit 192022 from channel at input 1.
9996 | network_0/router_7_4 | Adding flit 192022 to VC 0 at input 1 (state: idle, empty).
9996 | network_0/router_7_4 | Using precomputed lookahead routing information for VC 0 at input 1 (front: 192022).
9996 | network_0/router_7_4/buf_1/vc_0 | Changing state from idle to vc_alloc.
9996 | network_0/router_7_4 | Beginning VC allocation for VC 0 at input 1 (front: 192022).
9996 | network_0/router_7_4 |   Requesting VC 0 at output 3 (in_pri: 0, out_pri: 0).
9996 | network_0/router_7_4 |   Requesting VC 1 at output 3 (in_pri: 0, out_pri: 0).
9996 | network_0/router_7_4/vc_allocator | Input requests = [ 2 -> [ 6@0 7@0 ]  ], output requests = [ 6 -> [ 2@0 ]  7 -> [ 2@0 ]  ].
9996 | network_0/router_7_4/vc_allocator | Input grants = [ 2 -> 6  ], output grants = [ 6 -> 2  ].
9996 | network_0/router_7_4 | Assigning VC 0 at output 3 to VC 0 at input 1.
9996 | network_0/router_7_4 | Completed VC allocation for VC 0 at input 1 (front: 192022).
9996 | network_0/router_7_4 |   Acquiring assigned VC 0 at output 3.
9996 | network_0/router_7_4/buf_1/vc_0 | Changing state from vc_alloc to active.
9996 | network_0/router_7_4 | Beginning switch allocation for VC 0 at input 1 (front: 192022).
9996 | network_0/router_7_4 |   Requesting output 3.0 (non-spec, pri: 0).
9996 | network_0/router_7_4/sw_allocator | Input requests = [ 1 -> [ 3@0 ]  ], output requests = [ 3 -> [ 1@0 ]  ].
9996 | network_0/router_7_4/sw_allocator | Input grants = [ 1 -> 3  ], output grants = [ 3 -> 1  ].
9996 | network_0/router_7_4 | Assigning output 3.0 to VC 0 at input 1.0.
9996 | network_0/router_7_4 | Completed switch allocation for VC 0 at input 1 (front: 192022).
9996 | network_0/router_7_4 |   Scheduling switch connection from input 1.0 to output 3.0.
9996 | network_0/router_7_4 | Updating lookahead routing information for flit 192022.
9996 | network_0/router_6_4 | Adding VC range [0,1] at output port 3 for flit 192022 (input port 2, destination 44).
9997 | network_0/router_7_4 | Beginning crossbar traversal for flit 192022 from input 1.0 to output 3.0.
9997 | network_0/router_7_4 | Completed crossbar traversal for flit 192022 from input 1.0 to output 3.0.
9997 | network_0/router_7_4 | Buffering flit 192022 at output 3.
9998 | network_0/router_7_4 | Sending flit 192022 to channel at output 3.
9999 | network_0/network_0_fchan_243 | Beginning channel traversal for flit 192022 with delay 1.
9999 | network_0/network_0_fchan_243 | Completed channel traversal for flit 192022.
Class 0:
Packet latency average = 22.2882
	minimum = 5
	maximum = 134
Network latency average = 22.1424
	minimum = 5
	maximum = 61
Slowest packet = 620
Flit latency average = 22.1424
	minimum = 5
	maximum = 61
Slowest flit = 51985
Fragmentation average = 0
	minimum = 0
	maximum = 0
Injected packet rate average = 0.301322
	minimum = 0.291 (at node 56)
	maximum = 0.3116 (at node 55)
Accepted packet rate average = 0.300691
	minimum = 0.2905 (at node 33)
	maximum = 0.3144 (at node 53)
Injected flit rate average = 0.301322
	minimum = 0.291 (at node 56)
	maximum = 0.3116 (at node 55)
Accepted flit rate average= 0.300691
	minimum = 0.2905 (at node 33)
	maximum = 0.3144 (at node 53)
Injected packet length average = 1
Accepted packet length average = 1
Total in-flight flits = 404 (0 measured)
latency change    = 1
throughput change = 1
10000 | network_0/router_6_4 | Received flit 192022 from channel at input 2.
[...]
Reenqueueing errored packet 1100412 at time 57369
Additional hops: 28379
Adding flit 1100794 as NACK at time 57370
Additional hops: 28388
Adding flit 1101241 as NACK at time 57384
Additional hops: 28395
Adding flit 1101457 as NACK at time 57389
Reenqueueing errored packet 1100794 at time 57393
Reenqueueing errored packet 1101241 at time 57403
Reenqueueing errored packet 1101457 at time 57404
Additional hops: 28401
Adding flit 1102170 as NACK at time 57423
Additional hops: 28408
Adding flit 1102299 as NACK at time 57431
Reenqueueing errored packet 1102170 at time 57436
Reenqueueing errored packet 1102299 at time 57446
Additional hops: 28417
Adding flit 1102596 as NACK at time 57451
Additional hops: 28424
Adding flit 1102770 as NACK at time 57455
Additional hops: 28434
Adding flit 1102748 as NACK at time 57462
Reenqueueing errored packet 1102770 at time 57470
Reenqueueing errored packet 1102596 at time 57470
Additional hops: 28442
Adding flit 1102946 as NACK at time 57472
Additional hops: 28451
Adding flit 1102999 as NACK at time 57474
Additional hops: 28458
Adding flit 1103218 as NACK at time 57479
Reenqueueing errored packet 1102748 at time 57483
Reenqueueing errored packet 1102946 at time 57489
Reenqueueing errored packet 1102999 at time 57493
Reenqueueing errored packet 1103218 at time 57494
Additional hops: 28470
Adding flit 1103509 as NACK at time 57513
Additional hops: 28473
Adding flit 1104183 as NACK at time 57520
Reenqueueing errored packet 1104183 at time 57527
Additional hops: 28482
Adding flit 1103996 as NACK at time 57531
Reenqueueing errored packet 1103509 at time 57538
Reenqueueing errored packet 1103996 at time 57550
Additional hops: 28485
Adding flit 1104934 as NACK at time 57559
Additional hops: 28491
Adding flit 1104783 as NACK at time 57560
Additional hops: 28504
Adding flit 1104423 as NACK at time 57565
Reenqueueing errored packet 1104934 at time 57566
Additional hops: 28514
Adding flit 1104720 as NACK at time 57571
Reenqueueing errored packet 1104783 at time 57573
Reenqueueing errored packet 1104720 at time 57592
Reenqueueing errored packet 1104423 at time 57592
Additional hops: 28523
Adding flit 1105238 as NACK at time 57598
Reenqueueing errored packet 1105238 at time 57617
Additional hops: 28533
Adding flit 1105699 as NACK at time 57623
Additional hops: 28553
Adding flit 1104720 as NACK at time 57624
Reenqueueing errored packet 1105699 at time 57644
Additional hops: 28555
Adding flit 1106715 as NACK at time 57652
Additional hops: 28562
Adding flit 1106438 as NACK at time 57652
Additional hops: 28566
Adding flit 1106589 as NACK at time 57653
Reenqueueing errored packet 1106715 at time 57657
Reenqueueing errored packet 1106589 at time 57662
Additional hops: 28573
Adding flit 1106636 as NACK at time 57663
Reenqueueing errored packet 1104720 at time 57665
Reenqueueing errored packet 1106438 at time 57667
Reenqueueing errored packet 1106636 at time 57678
Additional hops: 28576
Adding flit 1107213 as NACK at time 57680
Reenqueueing errored packet 1107213 at time 57687
Additional hops: 28585
Adding flit 1107050 as NACK at time 57696
Additional hops: 28590
Adding flit 1107527 as NACK at time 57705
Reenqueueing errored packet 1107050 at time 57715
Reenqueueing errored packet 1107527 at time 57716
Additional hops: 28598
Adding flit 1107792 as NACK at time 57730
Additional hops: 28606
Adding flit 1108028 as NACK at time 57738
Additional hops: 28615
Adding flit 1108049 as NACK at time 57742
Reenqueueing errored packet 1107792 at time 57747
Reenqueueing errored packet 1108028 at time 57755
Additional hops: 28625
Adding flit 1108254 as NACK at time 57759
Reenqueueing errored packet 1108049 at time 57761
Reenqueueing errored packet 1108254 at time 57780
Additional hops: 28629
Adding flit 1109145 as NACK at time 57782
Additional hops: 28643
Adding flit 1108532 as NACK at time 57786
Reenqueueing errored packet 1109145 at time 57791
Additional hops: 28654
Adding flit 1108875 as NACK at time 57792
Additional hops: 28661
Adding flit 1109165 as NACK at time 57795
Additional hops: 28673
Adding flit 1108946 as NACK at time 57796
Reenqueueing errored packet 1109165 at time 57810
Reenqueueing errored packet 1108875 at time 57815
Reenqueueing errored packet 1108532 at time 57815
Reenqueueing errored packet 1108946 at time 57821
Additional hops: 28680
Adding flit 1110497 as NACK at time 57864
Reenqueueing errored packet 1110497 at time 57879
Additional hops: 28691
Adding flit 1111186 as NACK at time 57915
Uncorrectable 3
Additional hops: 28700
Adding flit 1111686 as NACK at time 57930
Reenqueueing errored packet 1111186 at time 57938
Reenqueueing errored packet 1111686 at time 57949
Additional hops: 28704
Adding flit 1112335 as NACK at time 57949
Additional hops: 28715
Adding flit 1111822 as NACK at time 57949
Reenqueueing errored packet 1112335 at time 57958
Reenqueueing errored packet 1111822 at time 57972
Additional hops: 28725
Adding flit 1112866 as NACK at time 58001
Reenqueueing errored packet 1112866 at time 58022
Additional hops: 28735
Adding flit 1113539 as NACK at time 58035
Reenqueueing errored packet 1113539 at time 58056
Additional hops: 28746
Adding flit 1114638 as NACK at time 58092
Additional hops: 28755
Adding flit 1115007 as NACK at time 58108
Additional hops: 28762
Adding flit 1115210 as NACK at time 58113
Reenqueueing errored packet 1114638 at time 58115
Reenqueueing errored packet 1115007 at time 58127
Reenqueueing errored packet 1115210 at time 58128
Additional hops: 28771
Adding flit 1116261 as NACK at time 58176
Additional hops: 28782
Adding flit 1116471 as NACK at time 58192
Reenqueueing errored packet 1116261 at time 58195
Reenqueueing errored packet 1116471 at time 58215
Uncorrectable 3
Additional hops: 28789
Adding flit 1117508 as NACK at time 58234
Additional hops: 28796
Adding flit 1117764 as NACK at time 58248
Reenqueueing errored packet 1117508 at time 58249
Additional hops: 28809
Adding flit 1117649 as NACK at time 58260
Reenqueueing errored packet 1117764 at time 58263
Additional hops: 28820
Adding flit 1118104 as NACK at time 58280
Reenqueueing errored packet 1117649 at time 58287
Additional hops: 28823
Adding flit 1118861 as NACK at time 58294
Additional hops: 28830
Adding flit 1118655 as NACK at time 58295
Reenqueueing errored packet 1118861 at time 58301
Reenqueueing errored packet 1118104 at time 58303
Reenqueueing errored packet 1118655 at time 58310
Additional hops: 28837
Adding flit 1120020 as NACK at time 58367
Reenqueueing errored packet 1120020 at time 58382
Additional hops: 28845
Adding flit 1120515 as NACK at time 58394
Additional hops: 28854
Adding flit 1120550 as NACK at time 58399
Reenqueueing errored packet 1120515 at time 58411
Reenqueueing errored packet 1120550 at time 58418
Additional hops: 28864
Adding flit 1121053 as NACK at time 58433
Additional hops: 28868
Adding flit 1121745 as NACK at time 58450
Reenqueueing errored packet 1121053 at time 58454
Additional hops: 28877
Adding flit 1121619 as NACK at time 58456
Additional hops: 28884
Adding flit 1121766 as NACK at time 58458
Reenqueueing errored packet 1121745 at time 58459
Reenqueueing errored packet 1121766 at time 58473
Reenqueueing errored packet 1121619 at time 58475
Additional hops: 28895
Adding flit 1121848 as NACK at time 58475
Additional hops: 28901
Adding flit 1122192 as NACK at time 58476
Additional hops: 28906
Adding flit 1122428 as NACK at time 58485
Reenqueueing errored packet 1122192 at time 58489
Additional hops: 28915
Adding flit 1122290 as NACK at time 58490
Additional hops: 28922
Adding flit 1122403 as NACK at time 58493
Reenqueueing errored packet 1122428 at time 58496
Reenqueueing errored packet 1121848 at time 58498
Reenqueueing errored packet 1122403 at time 58508
Additional hops: 28940
Adding flit 1121619 as NACK at time 58508
Reenqueueing errored packet 1122290 at time 58509
Additional hops: 28946
Adding flit 1122807 as NACK at time 58510
Additional hops: 28955
Adding flit 1122651 as NACK at time 58510
Reenqueueing errored packet 1122807 at time 58523
Reenqueueing errored packet 1122651 at time 58529
Additional hops: 28973
Adding flit 1122290 as NACK at time 58544
Reenqueueing errored packet 1121619 at time 58545
Additional hops: 28984
Adding flit 1123304 as NACK at time 58548
Additional hops: 28995
Adding flit 1123395 as NACK at time 58555
Reenqueueing errored packet 1123304 at time 58571
Reenqueueing errored packet 1123395 at time 58578
Reenqueueing errored packet 1122290 at time 58581
Additional hops: 29003
Adding flit 1124543 as NACK at time 58603
Reenqueueing errored packet 1124543 at time 58620
Additional hops: 29010
Adding flit 1125042 as NACK at time 58629
Reenqueueing errored packet 1125042 at time 58644
Additional hops: 29017
Adding flit 1125487 as NACK at time 58653
Additional hops: 29021
Adding flit 1125885 as NACK at time 58665
Reenqueueing errored packet 1125487 at time 58668
Reenqueueing errored packet 1125885 at time 58674
Additional hops: 29028
Adding flit 1125978 as NACK at time 58680
Reenqueueing errored packet 1125978 at time 58695
Additional hops: 29035
Adding flit 1126391 as NACK at time 58701
Additional hops: 29048
Adding flit 1126124 as NACK at time 58706
Additional hops: 29057
Adding flit 1126436 as NACK at time 58709
Reenqueueing errored packet 1126391 at time 58716
Additional hops: 29070
Adding flit 1126420 as NACK at time 58725
Reenqueueing errored packet 1126436 at time 58728
Reenqueueing errored packet 1126124 at time 58733
Additional hops: 29079
Adding flit 1126992 as NACK at time 58740
Reenqueueing errored packet 1126420 at time 58752
Uncorrectable 3
Additional hops: 29085
Adding flit 1127438 as NACK at time 58753
Reenqueueing errored packet 1126992 at time 58759
Reenqueueing errored packet 1127438 at time 58766
Additional hops: 29092
Adding flit 1127712 as NACK at time 58774
Reenqueueing errored packet 1127712 at time 58789
Additional hops: 29101
Adding flit 1127875 as NACK at time 58789
Reenqueueing errored packet 1127875 at time 58808
Additional hops: 29109
Adding flit 1128386 as NACK at time 58809
Reenqueueing errored packet 1128386 at time 58826
Additional hops: 29117
Adding flit 1128760 as NACK at time 58830
Reenqueueing errored packet 1128760 at time 58847
Additional hops: 29124
Adding flit 1129171 as NACK at time 58850
Additional hops: 29130
Adding flit 1129376 as NACK at time 58856
Reenqueueing errored packet 1129171 at time 58865
Reenqueueing errored packet 1129376 at time 58869
Additional hops: 29139
Adding flit 1129501 as NACK at time 58870
Additional hops: 29146
Adding flit 1129904 as NACK at time 58888
Reenqueueing errored packet 1129501 at time 58889
Additional hops: 29155
Adding flit 1130028 as NACK at time 58899
Reenqueueing errored packet 1129904 at time 58903
Additional hops: 29160
Adding flit 1130538 as NACK at time 58914
Reenqueueing errored packet 1130028 at time 58918
Additional hops: 29166
Adding flit 1130596 as NACK at time 58920
Reenqueueing errored packet 1130538 at time 58925
Reenqueueing errored packet 1130596 at time 58933
Additional hops: 29175
Adding flit 1130792 as NACK at time 58940
Additional hops: 29181
Adding flit 1131227 as NACK at time 58953
Reenqueueing errored packet 1130792 at time 58959
Reenqueueing errored packet 1131227 at time 58966
Additional hops: 29190
Adding flit 1131274 as NACK at time 58969
Additional hops: 29196
Adding flit 1131527 as NACK at time 58970
Additional hops: 29210
Adding flit 1131210 as NACK at time 58976
Reenqueueing errored packet 1131527 at time 58983
Reenqueueing errored packet 1131274 at time 58988
Additional hops: 29216
Adding flit 1131921 as NACK at time 58990
Reenqueueing errored packet 1131921 at time 59003
Reenqueueing errored packet 1131210 at time 59005
Uncorrectable 3
Additional hops: 29230
Adding flit 1131907 as NACK at time 59013
Reenqueueing errored packet 1131907 at time 59042
Additional hops: 29238
Adding flit 1133336 as NACK at time 59070
Additional hops: 29243
Adding flit 1133742 as NACK at time 59083
Reenqueueing errored packet 1133336 at time 59087
Reenqueueing errored packet 1133742 at time 59094
Additional hops: 29253
Adding flit 1133715 as NACK at time 59098
Reenqueueing errored packet 1133715 at time 59119
Additional hops: 29260
Adding flit 1134330 as NACK at time 59120
Reenqueueing errored packet 1134330 at time 59135
Additional hops: 29265
Adding flit 1134871 as NACK at time 59142
Additional hops: 29277
Adding flit 1134640 as NACK at time 59150
Reenqueueing errored packet 1134871 at time 59153
Additional hops: 29282
Adding flit 1135106 as NACK at time 59156
Uncorrectable 3
Additional hops: 29287
Adding flit 1135141 as NACK at time 59156
Additional hops: 29300
Adding flit 1134815 as NACK at time 59164
Reenqueueing errored packet 1135141 at time 59167
Reenqueueing errored packet 1135106 at time 59167
Reenqueueing errored packet 1134640 at time 59175
Uncorrectable 3
Additional hops: 29305
Adding flit 1135722 as NACK at time 59188
Reenqueueing errored packet 1134815 at time 59191
Reenqueueing errored packet 1135722 at time 59199
Additional hops: 29329
Adding flit 1134640 as NACK at time 59217
Uncorrectable 3
Additional hops: 29341
Adding flit 1136372 as NACK at time 59246
Additional hops: 29351
Adding flit 1136564 as NACK at time 59246
Uncorrectable 3
Additional hops: 29359
Adding flit 1136767 as NACK at time 59251
Reenqueueing errored packet 1134640 at time 59266
Reenqueueing errored packet 1136564 at time 59267
Reenqueueing errored packet 1136767 at time 59268
Reenqueueing errored packet 1136372 at time 59271
Additional hops: 29367
Adding flit 1137318 as NACK at time 59279
Additional hops: 29371
Adding flit 1137826 as NACK at time 59292
Reenqueueing errored packet 1137318 at time 59296
Reenqueueing errored packet 1137826 at time 59301
Additional hops: 29377
Adding flit 1138537 as NACK at time 59336
Reenqueueing errored packet 1138537 at time 59349
Additional hops: 29390
Adding flit 1138719 as NACK at time 59366
Additional hops: 29396
Adding flit 1139610 as NACK at time 59390
Reenqueueing errored packet 1138719 at time 59393
Reenqueueing errored packet 1139610 at time 59403
Additional hops: 29400
Adding flit 1140209 as NACK at time 59414
Reenqueueing errored packet 1140209 at time 59423
Additional hops: 29413
Adding flit 1140667 as NACK at time 59466
Additional hops: 29424
Adding flit 1140920 as NACK at time 59476
Reenqueueing errored packet 1140667 at time 59493
Reenqueueing errored packet 1140920 at time 59499
Additional hops: 29431
Adding flit 1141727 as NACK at time 59504
Additional hops: 29436
Adding flit 1141995 as NACK at time 59509
Reenqueueing errored packet 1141727 at time 59519
Reenqueueing errored packet 1141995 at time 59520
Additional hops: 29446
Adding flit 1142998 as NACK at time 59577
Reenqueueing errored packet 1142998 at time 59598
Additional hops: 29458
Adding flit 1143777 as NACK at time 59626
Reenqueueing errored packet 1143777 at time 59651
Additional hops: 29468
Adding flit 1145220 as NACK at time 59692
Reenqueueing errored packet 1145220 at time 59713
Additional hops: 29474
Adding flit 1146235 as NACK at time 59729
Additional hops: 29482
Adding flit 1146215 as NACK at time 59734
Additional hops: 29486
Adding flit 1146443 as NACK at time 59735
Additional hops: 29499
Adding flit 1145957 as NACK at time 59737
Additional hops: 29509
Adding flit 1146131 as NACK at time 59741
Reenqueueing errored packet 1146235 at time 59742
Reenqueueing errored packet 1146443 at time 59744
Additional hops: 29514
Adding flit 1146635 as NACK at time 59748
Reenqueueing errored packet 1146215 at time 59751
Reenqueueing errored packet 1146635 at time 59759
Reenqueueing errored packet 1146131 at time 59762
Reenqueueing errored packet 1145957 at time 59764
Additional hops: 29521
Adding flit 1146929 as NACK at time 59766
Reenqueueing errored packet 1146929 at time 59781
Additional hops: 29530
Adding flit 1147149 as NACK at time 59785
Additional hops: 29537
Adding flit 1147291 as NACK at time 59786
Additional hops: 29548
Adding flit 1147182 as NACK at time 59793
Reenqueueing errored packet 1147291 at time 59801
Reenqueueing errored packet 1147149 at time 59804
Reenqueueing errored packet 1147182 at time 59816
Additional hops: 29558
Adding flit 1147922 as NACK at time 59826
Additional hops: 29571
Adding flit 1148024 as NACK at time 59843
Additional hops: 29580
Adding flit 1148307 as NACK at time 59844
Reenqueueing errored packet 1147922 at time 59847
Additional hops: 29588
Adding flit 1148611 as NACK at time 59855
Additional hops: 29594
Adding flit 1148774 as NACK at time 59856
Additional hops: 29603
Adding flit 1148607 as NACK at time 59857
Uncorrectable 3
Additional hops: 29610
Adding flit 1148726 as NACK at time 59858
Additional hops: 29616
Adding flit 1148741 as NACK at time 59860
Reenqueueing errored packet 1148307 at time 59863
Reenqueueing errored packet 1148774 at time 59869
Reenqueueing errored packet 1148024 at time 59870
Reenqueueing errored packet 1148611 at time 59872
Reenqueueing errored packet 1148741 at time 59873
Reenqueueing errored packet 1148726 at time 59873
Reenqueueing errored packet 1148607 at time 59876
Additional hops: 29621
Adding flit 1149767 as NACK at time 59904
Reenqueueing errored packet 1149767 at time 59915
Additional hops: 29633
Adding flit 1149718 as NACK at time 59923
Additional hops: 29645
Adding flit 1150002 as NACK at time 59939
Reenqueueing errored packet 1149718 at time 59948
Reenqueueing errored packet 1150002 at time 59964
Uncorrectable 3
Additional hops: 29648
Adding flit 1151006 as NACK at time 59964
Reenqueueing errored packet 1151006 at time 59971
Uncorrectable 3
Additional hops: 29656
Adding flit 1150838 as NACK at time 59971
Additional hops: 29664
Adding flit 1150886 as NACK at time 59973
Reenqueueing errored packet 1150838 at time 59988
Reenqueueing errored packet 1150886 at time 59990
Additional hops: 29669
Adding flit 1151438 as NACK at time 59993
Class 0:
Packet latency average = 22.2627
	minimum = 5
	maximum = 223
Network latency average = 22.1135
	minimum = 5
	maximum = 60
Slowest packet = 575485
Flit latency average = 22.1166
	minimum = 5
	maximum = 60
Slowest flit = 659744
Fragmentation average = 0
	minimum = 0
	maximum = 0
Injected packet rate average = 0.30121
	minimum = 0.293267 (at node 61)
	maximum = 0.307933 (at node 28)
Accepted packet rate average = 0.301226
	minimum = 0.294367 (at node 14)
	maximum = 0.3093 (at node 15)
Injected flit rate average = 0.30121
	minimum = 0.293267 (at node 61)
	maximum = 0.307933 (at node 28)
Accepted flit rate average= 0.301226
	minimum = 0.294367 (at node 14)
	maximum = 0.3093 (at node 15)
Injected packet length average = 1
Accepted packet length average = 1
Total in-flight flits = 438 (438 measured)
latency change    = 8.3452e-06
throughput change = 0.00049105
Draining all recorded packets ...
Reenqueueing errored packet 1151438 at time 60004
Draining remaining packets ...
Time taken is 60089 cycles
====== Overall Traffic Statistics ======
====== Traffic class 0 ======
Packet latency average = 22.2657 (1 samples)
	minimum = 5 (1 samples)
	maximum = 223 (1 samples)
Network latency average = 22.1163 (1 samples)
	minimum = 5 (1 samples)
	maximum = 60 (1 samples)
Flit latency average = 22.119 (1 samples)
	minimum = 5 (1 samples)
	maximum = 60 (1 samples)
Fragmentation average = 0 (1 samples)
	minimum = 0 (1 samples)
	maximum = 0 (1 samples)
Injected packet rate average = 0.30121 (1 samples)
	minimum = 0.293267 (1 samples)
	maximum = 0.307933 (1 samples)
Accepted packet rate average = 0.301226 (1 samples)
	minimum = 0.294367 (1 samples)
	maximum = 0.3093 (1 samples)
Injected flit rate average = 0.30121 (1 samples)
	minimum = 0.293267 (1 samples)
	maximum = 0.307933 (1 samples)
Accepted flit rate average = 0.301226 (1 samples)
	minimum = 0.294367 (1 samples)
	maximum = 0.3093 (1 samples)
Injected packet size average = 1 (1 samples)
Accepted packet size average = 1 (1 samples)
Hops average = 6.27147 (1 samples)
Total run time 158.692
