BEGIN Configuration File: examples/ecc_mesh88_config_0_0.050_link_1
// $Id$

// Copyright (c) 2007-2015, Trustees of The Leland Stanford Junior University
// All rights reserved.
//
// Redistribution and use in source and binary forms, with or without
// modification, are permitted provided that the following conditions are met:
//
// Redistributions of source code must retain the above copyright notice, this
// list of conditions and the following disclaimer.
// Redistributions in binary form must reproduce the above copyright notice,
// this list of conditions and the following disclaimer in the documentation
// and/or other materials provided with the distribution.
//
// THIS SOFTWARE IS PROVIDED BY THE COPYRIGHT HOLDERS AND CONTRIBUTORS "AS IS"
// AND ANY EXPRESS OR IMPLIED WARRANTIES, INCLUDING, BUT NOT LIMITED TO, THE
// IMPLIED WARRANTIES OF MERCHANTABILITY AND FITNESS FOR A PARTICULAR PURPOSE
// ARE DISCLAIMED. IN NO EVENT SHALL THE COPYRIGHT OWNER OR CONTRIBUTORS BE
// LIABLE FOR ANY DIRECT, INDIRECT, INCIDENTAL, SPECIAL, EXEMPLARY, OR
// CONSEQUENTIAL DAMAGES (INCLUDING, BUT NOT LIMITED TO, PROCUREMENT OF
// SUBSTITUTE GOODS OR SERVICES; LOSS OF USE, DATA, OR PROFITS; OR BUSINESS
// INTERRUPTION) HOWEVER CAUSED AND ON ANY THEORY OF LIABILITY, WHETHER IN
// CONTRACT, STRICT LIABILITY, OR TORT (INCLUDING NEGLIGENCE OR OTHERWISE)
// ARISING IN ANY WAY OUT OF THE USE OF THIS SOFTWARE, EVEN IF ADVISED OF THE
// POSSIBILITY OF SUCH DAMAGE.

// Dragonfly
//




vc_buf_size = 256;


wait_for_tail_credit = 0;

//
// Router architecture
//
vc_allocator = separable_input_first; 
sw_allocator = separable_input_first;
alloc_iters  = 1;

credit_delay   = 2;
routing_delay  = 0;
vc_alloc_delay = 1;
sw_alloc_delay = 1;
st_final_delay = 1;

input_speedup     = 1;
output_speedup    = 1;
internal_speedup  = 2.0;


warmup_periods = 3;
sim_count          = 1;

sample_period  = 10000;  


routing_function = dor;
num_vcs     = 2;

priority = none;
traffic       = uniform; 

injection_rate = 0.05;
packet_size = 1;
injection_rate_uses_flits=1;

topology = mesh;

k  = 8;
n  = 2;

fer = 1;
ecc = link;
correctable = 0;

watch_out=-;
watch_file = watch.txt;

ecc = link;

stats_out = examples/ecc_mesh88_config_0_0.050_link_1.m;

END Configuration File: examples/ecc_mesh88_config_0_0.050_link_1
Requeued flit 12
Requeued flit 47
Requeued flit 3
Requeued flit 46
Requeued flit 0
Requeued flit 43
Requeued flit 20
Requeued flit 26
Requeued flit 61
Requeued flit 12
Requeued flit 58
Requeued flit 29
Requeued flit 28
Requeued flit 65
Requeued flit 91
Requeued flit 57
Requeued flit 48
Requeued flit 71
Requeued flit 42
Requeued flit 36
Requeued flit 105
Requeued flit 18
Requeued flit 68
Requeued flit 93
Requeued flit 70
Requeued flit 50
Requeued flit 73
Requeued flit 30
Requeued flit 88
Requeued flit 3
Requeued flit 21
Requeued flit 98
Requeued flit 96
Requeued flit 137
Requeued flit 122
Requeued flit 65
Requeued flit 99
Requeued flit 115
Requeued flit 120
Requeued flit 71
Requeued flit 129
Requeued flit 96
Requeued flit 171
Requeued flit 178
Requeued flit 188
Requeued flit 144
Requeued flit 115
Requeued flit 157
Requeued flit 136
Requeued flit 47
Requeued flit 170
Requeued flit 128
Requeued flit 102
Requeued flit 192
Requeued flit 111
Requeued flit 158
Requeued flit 36
Requeued flit 177
Requeued flit 119
Requeued flit 53
Requeued flit 149
Requeued flit 196
Requeued flit 164
Requeued flit 180
Requeued flit 60
Requeued flit 211
Requeued flit 49
Requeued flit 182
Requeued flit 104
Requeued flit 129
Requeued flit 68
Requeued flit 191
Requeued flit 75
Requeued flit 38
Requeued flit 201
Requeued flit 218
Requeued flit 232
Requeued flit 101
Requeued flit 124
Requeued flit 237
Requeued flit 139
Requeued flit 226
Requeued flit 224
Requeued flit 53
Requeued flit 123
Requeued flit 240
Requeued flit 250
Requeued flit 245
Requeued flit 161
Requeued flit 68
Requeued flit 191
Requeued flit 163
Requeued flit 247
Requeued flit 139
Requeued flit 225
Requeued flit 178
Requeued flit 230
Requeued flit 256
Requeued flit 209
Requeued flit 254
Requeued flit 193
Requeued flit 227
Requeued flit 161
Requeued flit 194
Requeued flit 38
Requeued flit 289
Requeued flit 213
Requeued flit 280
Requeued flit 204
Requeued flit 95
Requeued flit 218
Requeued flit 171
Requeued flit 290
Requeued flit 196
Requeued flit 30
Requeued flit 172
Requeued flit 293
Requeued flit 264
Requeued flit 101
Requeued flit 147
Requeued flit 182
Requeued flit 282
Requeued flit 304
Requeued flit 283
Requeued flit 271
Requeued flit 278
Requeued flit 266
Requeued flit 246
Requeued flit 28
Requeued flit 280
Requeued flit 287
Requeued flit 237
Requeued flit 171
Requeued flit 189
Requeued flit 156
Requeued flit 254
Requeued flit 286
Requeued flit 323
Requeued flit 314
Requeued flit 318
Requeued flit 282
Requeued flit 248
Requeued flit 299
Requeued flit 302
Requeued flit 105
Requeued flit 95
Requeued flit 296
Requeued flit 201
Requeued flit 322
Requeued flit 303
Requeued flit 121
Requeued flit 274
Requeued flit 330
Requeued flit 218
Requeued flit 278
Requeued flit 326
Requeued flit 320
Requeued flit 335
Requeued flit 309
Requeued flit 263
Requeued flit 346
Requeued flit 196
Requeued flit 307
Requeued flit 246
Requeued flit 226
Requeued flit 189
Requeued flit 375
Requeued flit 207
Requeued flit 344
Requeued flit 248
Requeued flit 255
Requeued flit 303
Requeued flit 377
Requeued flit 374
Requeued flit 332
Requeued flit 351
Requeued flit 367
Requeued flit 259
Requeued flit 217
Requeued flit 47
Requeued flit 305
Requeued flit 352
Requeued flit 218
Requeued flit 345
Requeued flit 207
Requeued flit 384
Requeued flit 189
Requeued flit 336
Requeued flit 414
Requeued flit 265
Requeued flit 376
Requeued flit 308
Requeued flit 378
Requeued flit 318
Requeued flit 311
Requeued flit 377
Requeued flit 396
Requeued flit 368
Requeued flit 355
Requeued flit 434
Requeued flit 384
Requeued flit 401
Requeued flit 415
Requeued flit 47
Requeued flit 417
Requeued flit 228
Requeued flit 286
Requeued flit 366
Requeued flit 394
Requeued flit 375
Requeued flit 325
Requeued flit 397
Requeued flit 248
Requeued flit 299
Requeued flit 408
Requeued flit 389
Requeued flit 439
Requeued flit 418
Requeued flit 349
Requeued flit 426
Requeued flit 377
Requeued flit 465
Requeued flit 344
Requeued flit 386
Requeued flit 454
Requeued flit 466
Requeued flit 18
Requeued flit 447
Requeued flit 411
Requeued flit 333
Requeued flit 385
Requeued flit 471
Requeued flit 470
Requeued flit 228
Requeued flit 473
Requeued flit 419
Requeued flit 336
Requeued flit 441
Requeued flit 434
Requeued flit 397
Requeued flit 475
Requeued flit 369
Requeued flit 433
Requeued flit 429
Requeued flit 444
Requeued flit 435
Requeued flit 481
Requeued flit 394
Requeued flit 501
Requeued flit 259
Requeued flit 412
Requeued flit 368
Requeued flit 486
Requeued flit 455
Requeued flit 474
Requeued flit 453
Requeued flit 438
Requeued flit 492
Requeued flit 248
Requeued flit 484
Requeued flit 503
Requeued flit 361
Requeued flit 18
Requeued flit 332
Requeued flit 311
Requeued flit 415
Requeued flit 497
Requeued flit 509
Requeued flit 385
Requeued flit 424
Requeued flit 368
Requeued flit 297
Requeued flit 508
Requeued flit 308
Requeued flit 458
Requeued flit 237
Requeued flit 362
Requeued flit 402
Requeued flit 489
Requeued flit 47
Requeued flit 432
Requeued flit 477
Requeued flit 375
Requeued flit 521
Requeued flit 333
Requeued flit 519
Requeued flit 530
Requeued flit 520
Requeued flit 403
Requeued flit 470
Requeued flit 395
Requeued flit 501
Requeued flit 273
Requeued flit 506
Requeued flit 493
Requeued flit 435
Requeued flit 443
Requeued flit 412
Requeued flit 476
Requeued flit 364
Requeued flit 468
Requeued flit 504
Requeued flit 492
Requeued flit 454
Requeued flit 529
Requeued flit 521
Requeued flit 556
Requeued flit 546
Requeued flit 545
Requeued flit 554
Requeued flit 456
Requeued flit 534
Requeued flit 525
Requeued flit 473
Requeued flit 511
Requeued flit 489
Requeued flit 562
Requeued flit 444
Requeued flit 573
Requeued flit 510
Requeued flit 570
Requeued flit 415
Requeued flit 506
Requeued flit 496
Requeued flit 463
Requeued flit 547
Requeued flit 540
Requeued flit 577
Requeued flit 403
Requeued flit 412
Requeued flit 562
Requeued flit 537
Requeued flit 454
Requeued flit 524
Requeued flit 453
Requeued flit 556
Requeued flit 432
Requeued flit 369
Requeued flit 575
Requeued flit 555
Requeued flit 563
Requeued flit 443
Requeued flit 527
Requeued flit 500
Requeued flit 558
Requeued flit 530
Requeued flit 595
Requeued flit 362
Requeued flit 506
Requeued flit 311
Requeued flit 604
Requeued flit 396
Requeued flit 554
Requeued flit 412
Requeued flit 564
Requeued flit 606
Requeued flit 468
Requeued flit 636
Requeued flit 621
Requeued flit 308
Requeued flit 389
Requeued flit 572
Requeued flit 605
Requeued flit 571
Requeued flit 521
Requeued flit 626
Requeued flit 584
Requeued flit 582
Requeued flit 654
Requeued flit 311
Requeued flit 452
Requeued flit 642
Requeued flit 574
Requeued flit 618
Requeued flit 651
Requeued flit 596
Requeued flit 632
Requeued flit 588
Requeued flit 619
Requeued flit 644
Requeued flit 344
Requeued flit 525
Requeued flit 648
Requeued flit 594
Requeued flit 506
Requeued flit 653
Requeued flit 537
Requeued flit 659
Requeued flit 630
Requeued flit 649
Requeued flit 589
Requeued flit 631
Requeued flit 654
Requeued flit 624
Requeued flit 652
Requeued flit 344
Requeued flit 685
Requeued flit 621
Requeued flit 628
Requeued flit 638
Requeued flit 582
Requeued flit 670
Requeued flit 574
Requeued flit 631
Requeued flit 514
Requeued flit 537
Requeued flit 595
Requeued flit 452
Requeued flit 633
Requeued flit 678
Requeued flit 693
Requeued flit 311
Requeued flit 589
Requeued flit 701
Requeued flit 719
Requeued flit 688
Requeued flit 717
Requeued flit 658
Requeued flit 713
Requeued flit 671
Requeued flit 630
Requeued flit 723
Requeued flit 741
Requeued flit 680
Requeued flit 732
Requeued flit 728
Requeued flit 749
Requeued flit 748
Requeued flit 705
Requeued flit 715
Requeued flit 711
Requeued flit 595
Requeued flit 623
Requeued flit 597
Requeued flit 685
Requeued flit 743
Requeued flit 562
Requeued flit 762
Requeued flit 694
Requeued flit 705
Requeued flit 653
Requeued flit 589
Requeued flit 746
Requeued flit 722
Requeued flit 679
Requeued flit 784
Requeued flit 747
Requeued flit 759
Requeued flit 669
Requeued flit 777
Requeued flit 742
Requeued flit 772
Requeued flit 794
Requeued flit 595
Requeued flit 758
Requeued flit 687
Requeued flit 743
Requeued flit 653
Requeued flit 751
Requeued flit 716
Requeued flit 656
Requeued flit 797
Requeued flit 589
Requeued flit 688
Requeued flit 749
Requeued flit 701
Requeued flit 805
Requeued flit 670
Requeued flit 792
Requeued flit 781
Requeued flit 827
Requeued flit 767
Requeued flit 745
Requeued flit 787
Requeued flit 837
Requeued flit 748
Requeued flit 812
Requeued flit 785
Requeued flit 831
Requeued flit 783
Requeued flit 829
Requeued flit 773
Requeued flit 752
Requeued flit 723
Requeued flit 843
Requeued flit 821
Requeued flit 850
Requeued flit 849
Requeued flit 848
Requeued flit 787
Requeued flit 726
Requeued flit 823
Requeued flit 734
Requeued flit 841
Requeued flit 832
Requeued flit 707
Requeued flit 784
Requeued flit 838
Requeued flit 829
Requeued flit 828
Requeued flit 868
Requeued flit 854
Requeued flit 864
Requeued flit 732
Requeued flit 858
Requeued flit 888
Requeued flit 872
Requeued flit 804
Requeued flit 871
Requeued flit 810
Requeued flit 745
Requeued flit 837
Requeued flit 726
Requeued flit 755
Requeued flit 840
Requeued flit 855
Requeued flit 806
Requeued flit 902
Requeued flit 883
Requeued flit 786
Requeued flit 818
Requeued flit 791
Requeued flit 682
Requeued flit 637
Requeued flit 886
Requeued flit 783
Requeued flit 907
Requeued flit 563
Requeued flit 874
Requeued flit 888
Requeued flit 922
Requeued flit 841
Requeued flit 865
Requeued flit 825
Requeued flit 663
Requeued flit 834
Requeued flit 860
Requeued flit 884
Requeued flit 890
Requeued flit 926
Requeued flit 893
Requeued flit 847
Requeued flit 896
Requeued flit 855
Requeued flit 809
Requeued flit 955
Requeued flit 948
Requeued flit 663
Requeued flit 954
Requeued flit 798
Requeued flit 814
Requeued flit 867
Requeued flit 873
Requeued flit 874
Requeued flit 922
Requeued flit 917
Requeued flit 941
Requeued flit 944
Requeued flit 968
Requeued flit 902
Requeued flit 914
Requeued flit 765
Requeued flit 903
Requeued flit 924
Requeued flit 841
Requeued flit 936
Requeued flit 863
Requeued flit 821
Requeued flit 857
Requeued flit 969
Requeued flit 746
Requeued flit 956
Requeued flit 978
Requeued flit 964
Requeued flit 912
Requeued flit 891
Requeued flit 883
Requeued flit 909
Requeued flit 913
Requeued flit 868
Requeued flit 901
Requeued flit 895
Requeued flit 979
Requeued flit 959
Requeued flit 962
Requeued flit 946
Requeued flit 873
Requeued flit 932
Requeued flit 939
Requeued flit 973
Requeued flit 903
Requeued flit 922
Requeued flit 863
Requeued flit 924
Requeued flit 825
Requeued flit 999
Requeued flit 962
Requeued flit 975
Requeued flit 1010
Requeued flit 940
Requeued flit 923
Requeued flit 993
Requeued flit 943
Requeued flit 1013
Requeued flit 796
Requeued flit 901
Requeued flit 928
Requeued flit 882
Requeued flit 983
Requeued flit 1008
Requeued flit 1033
Requeued flit 977
Requeued flit 908
Requeued flit 996
Requeued flit 1029
Requeued flit 863
Requeued flit 1023
Requeued flit 1005
Requeued flit 1044
Requeued flit 909
Requeued flit 989
Requeued flit 1039
Requeued flit 913
Requeued flit 905
Requeued flit 1060
Requeued flit 1040
Requeued flit 1019
Requeued flit 1014
Requeued flit 1041
Requeued flit 943
Requeued flit 1070
Requeued flit 936
Requeued flit 995
Requeued flit 1058
Requeued flit 908
Requeued flit 1069
Requeued flit 814
Requeued flit 1083
Requeued flit 901
Requeued flit 1016
Requeued flit 1013
Requeued flit 970
Requeued flit 1048
Requeued flit 922
Requeued flit 796
Requeued flit 807
Requeued flit 988
Requeued flit 946
Requeued flit 1065
Requeued flit 1008
Requeued flit 1093
Requeued flit 1006
Requeued flit 589
Requeued flit 737
Requeued flit 1056
Requeued flit 1046
Requeued flit 1097
Requeued flit 1078
Requeued flit 996
Requeued flit 980
Requeued flit 735
Requeued flit 860
Requeued flit 589
Requeued flit 1079
Requeued flit 989
Requeued flit 941
Requeued flit 1050
Requeued flit 1117
Requeued flit 1056
Requeued flit 946
Requeued flit 1086
Requeued flit 785
Requeued flit 909
Requeued flit 1093
Requeued flit 1060
Requeued flit 1095
Requeued flit 1137
Requeued flit 1110
Requeued flit 1108
Requeued flit 735
Requeued flit 1129
Requeued flit 922
Requeued flit 1139
Requeued flit 1086
Requeued flit 992
Requeued flit 1013
Requeued flit 1023
Requeued flit 1127
Requeued flit 1012
Requeued flit 1146
Requeued flit 1097
Requeued flit 905
Requeued flit 997
Requeued flit 1125
Requeued flit 1025
Requeued flit 1154
Requeued flit 1165
Requeued flit 1076
Requeued flit 1100
Requeued flit 1081
Requeued flit 1156
Requeued flit 1148
Requeued flit 1142
Requeued flit 1123
Requeued flit 1144
Requeued flit 1166
Requeued flit 1070
Requeued flit 1177
Requeued flit 1195
Requeued flit 1196
Requeued flit 1162
Requeued flit 1112
Requeued flit 1129
Requeued flit 1187
Requeued flit 1198
Requeued flit 997
Requeued flit 1126
Requeued flit 1121
Requeued flit 1012
Requeued flit 1156
Requeued flit 1202
Requeued flit 1144
Requeued flit 1016
Requeued flit 1153
Requeued flit 589
Requeued flit 1181
Requeued flit 1129
Requeued flit 1200
Requeued flit 1114
Requeued flit 1158
Requeued flit 1164
Requeued flit 1076
Requeued flit 1126
Requeued flit 1194
Requeued flit 1107
Requeued flit 1191
Requeued flit 1189
Requeued flit 1087
Requeued flit 1050
Requeued flit 1210
Requeued flit 1230
Requeued flit 1174
Requeued flit 1243
Requeued flit 1172
Requeued flit 1089
Requeued flit 1140
Requeued flit 737
Requeued flit 1183
Requeued flit 1213
Requeued flit 1052
Requeued flit 1209
Requeued flit 1023
Requeued flit 1212
Requeued flit 1228
Requeued flit 923
Requeued flit 1253
Requeued flit 1240
Requeued flit 1211
Requeued flit 1190
Requeued flit 1258
Requeued flit 1245
Requeued flit 1087
Requeued flit 1257
Requeued flit 1254
Requeued flit 1089
Requeued flit 589
Requeued flit 1287
Requeued flit 1230
Requeued flit 1098
Requeued flit 1196
Requeued flit 1126
Requeued flit 1140
Requeued flit 1172
Requeued flit 1277
Requeued flit 1206
Requeued flit 1219
Requeued flit 1259
Requeued flit 1284
Requeued flit 1261
Requeued flit 1244
Requeued flit 1268
Requeued flit 1293
Requeued flit 1251
Requeued flit 1012
Requeued flit 1052
Requeued flit 1230
Requeued flit 1296
Requeued flit 1271
Requeued flit 1183
Requeued flit 1307
Requeued flit 1232
Requeued flit 1095
Requeued flit 1315
Requeued flit 1214
Requeued flit 1223
Requeued flit 1229
Requeued flit 1194
Requeued flit 1140
Requeued flit 1282
Requeued flit 1241
Requeued flit 1211
Requeued flit 1279
Requeued flit 1312
Requeued flit 1302
Requeued flit 1276
Requeued flit 1317
Requeued flit 1183
Requeued flit 1226
Requeued flit 1281
Requeued flit 1333
Requeued flit 1095
Requeued flit 1208
Requeued flit 1308
Requeued flit 589
Requeued flit 1347
Requeued flit 1275
Requeued flit 1247
Requeued flit 1259
Requeued flit 1342
Requeued flit 1196
Requeued flit 1219
Requeued flit 1194
Requeued flit 1345
Requeued flit 1278
Requeued flit 1271
Requeued flit 1012
Requeued flit 1373
Requeued flit 1291
Requeued flit 1354
Requeued flit 1364
Requeued flit 1369
Requeued flit 1338
Requeued flit 1366
Requeued flit 1349
Requeued flit 1251
Requeued flit 1331
Requeued flit 1303
Requeued flit 1297
Requeued flit 1379
Requeued flit 1289
Requeued flit 1107
Requeued flit 1320
Requeued flit 1307
Requeued flit 1252
Requeued flit 1327
Requeued flit 1382
Requeued flit 1229
Requeued flit 1272
Requeued flit 1362
Requeued flit 1342
Requeued flit 1192
Requeued flit 1332
Requeued flit 1281
Requeued flit 1397
Requeued flit 1168
Requeued flit 1180
Requeued flit 1279
Requeued flit 1387
Requeued flit 1288
Requeued flit 1277
Requeued flit 1248
Requeued flit 1302
Requeued flit 1046
Requeued flit 1401
Requeued flit 1398
Requeued flit 1426
Requeued flit 1370
Requeued flit 1211
Requeued flit 1147
Requeued flit 1376
Requeued flit 1429
Requeued flit 1347
Requeued flit 936
Requeued flit 1380
Requeued flit 1208
Requeued flit 1282
Requeued flit 1362
Requeued flit 1308
Requeued flit 1173
Requeued flit 1144
Requeued flit 1386
Requeued flit 1197
Requeued flit 1427
Requeued flit 1411
Requeued flit 1307
Requeued flit 1421
Requeued flit 1419
Requeued flit 1357
Requeued flit 1418
Requeued flit 1347
Requeued flit 1312
Requeued flit 1282
Requeued flit 1269
Requeued flit 1457
Requeued flit 1412
Requeued flit 1367
Requeued flit 1297
Requeued flit 1397
Requeued flit 1445
Requeued flit 1451
Requeued flit 1267
Requeued flit 1343
Requeued flit 1439
Requeued flit 1319
Requeued flit 1447
Requeued flit 1449
Requeued flit 1466
Requeued flit 737
Requeued flit 1298
Requeued flit 1377
Requeued flit 1365
Requeued flit 1310
Requeued flit 1221
Requeued flit 1180
Requeued flit 1360
Requeued flit 1266
Requeued flit 1393
Requeued flit 1050
Requeued flit 1425
Requeued flit 1443
Requeued flit 1484
Requeued flit 1467
Requeued flit 1451
Requeued flit 1409
Requeued flit 1353
Requeued flit 1456
Requeued flit 1197
Requeued flit 1147
Requeued flit 1370
Requeued flit 1465
Requeued flit 1263
Requeued flit 1144
Requeued flit 1378
Requeued flit 1392
Requeued flit 1495
Requeued flit 1423
Requeued flit 1411
Requeued flit 1148
Requeued flit 1416
Requeued flit 1452
Requeued flit 1284
Requeued flit 1267
Requeued flit 1269
Requeued flit 1467
Requeued flit 1520
Requeued flit 1230
Requeued flit 1492
Requeued flit 1486
Requeued flit 1528
Requeued flit 1479
Requeued flit 1425
Requeued flit 1436
Requeued flit 1442
Requeued flit 1180
Requeued flit 1107
Requeued flit 936
Requeued flit 1482
Requeued flit 1478
Requeued flit 1506
Requeued flit 1427
Requeued flit 1321
Requeued flit 1430
Requeued flit 1462
Requeued flit 1487
Requeued flit 1515
Requeued flit 1437
Requeued flit 1359
Requeued flit 1476
Requeued flit 1537
Requeued flit 1481
Requeued flit 1183
Requeued flit 1400
Requeued flit 1422
Requeued flit 1563
Requeued flit 1568
Requeued flit 1557
Requeued flit 1324
Requeued flit 1552
Requeued flit 1533
Requeued flit 1495
Requeued flit 1524
Requeued flit 1353
Requeued flit 1528
Requeued flit 1475
Requeued flit 1572
Requeued flit 1565
Requeued flit 1378
Requeued flit 1537
Requeued flit 1553
Requeued flit 1521
Requeued flit 1438
Requeued flit 1427
Requeued flit 1435
Requeued flit 1549
Requeued flit 1506
Requeued flit 1595
Requeued flit 1592
Requeued flit 1544
Requeued flit 1384
Requeued flit 1576
Requeued flit 1572
Requeued flit 1550
Requeued flit 1508
Requeued flit 1481
Requeued flit 1594
Requeued flit 1448
Requeued flit 1562
Requeued flit 1422
Requeued flit 1601
Requeued flit 1573
Requeued flit 1614
Requeued flit 1580
Requeued flit 1605
Requeued flit 1603
Requeued flit 1353
Requeued flit 1087
Requeued flit 1563
Requeued flit 1622
Requeued flit 1397
Requeued flit 1609
Requeued flit 1495
Requeued flit 1500
Requeued flit 1438
Requeued flit 1623
Requeued flit 1595
Requeued flit 1310
Requeued flit 1384
Requeued flit 1564
Requeued flit 1615
Requeued flit 1422
Requeued flit 1587
Requeued flit 1641
Requeued flit 1630
Requeued flit 1508
Requeued flit 1650
Requeued flit 1638
Requeued flit 1625
Requeued flit 1618
Requeued flit 1644
Requeued flit 1476
Requeued flit 1514
Requeued flit 1544
Requeued flit 1564
Requeued flit 1553
Requeued flit 1530
Requeued flit 1321
Requeued flit 1310
Requeued flit 1659
Requeued flit 1595
Requeued flit 1517
Requeued flit 1673
Requeued flit 1645
Requeued flit 1662
Requeued flit 1647
Requeued flit 1422
Requeued flit 1649
Requeued flit 1664
Requeued flit 1430
Requeued flit 1586
Requeued flit 1694
Requeued flit 1689
Requeued flit 1666
Requeued flit 1612
Requeued flit 1467
Requeued flit 1697
Requeued flit 1656
Requeued flit 1678
Requeued flit 1627
Requeued flit 1654
Requeued flit 1690
Requeued flit 1475
Requeued flit 1720
Requeued flit 1702
Requeued flit 1658
Requeued flit 1615
Requeued flit 1669
Requeued flit 1642
Requeued flit 1713
Requeued flit 1698
Requeued flit 1716
Requeued flit 1696
Requeued flit 1384
Requeued flit 1547
Requeued flit 1648
Requeued flit 1632
Requeued flit 1575
Requeued flit 1699
Requeued flit 1741
Requeued flit 1646
Requeued flit 1722
Requeued flit 1681
Requeued flit 1562
Requeued flit 1719
Requeued flit 1701
Requeued flit 1553
Requeued flit 1682
Requeued flit 1482
Requeued flit 1695
Requeued flit 1619
Requeued flit 1749
Requeued flit 1658
Requeued flit 1487
Requeued flit 1624
Requeued flit 1628
Requeued flit 1732
Requeued flit 1670
Requeued flit 1601
Requeued flit 1744
Requeued flit 1738
Requeued flit 1665
Requeued flit 1730
Requeued flit 1701
Requeued flit 1746
Requeued flit 1663
Requeued flit 1438
Requeued flit 1653
Requeued flit 1566
Requeued flit 1763
Requeued flit 1712
Requeued flit 1761
Requeued flit 1788
Requeued flit 1715
Requeued flit 1777
Requeued flit 1773
Requeued flit 1517
Requeued flit 1775
Requeued flit 1601
Requeued flit 1805
Requeued flit 1759
Requeued flit 1665
Requeued flit 1684
Requeued flit 1802
Requeued flit 1690
Requeued flit 1564
Requeued flit 1635
Requeued flit 1733
Requeued flit 1649
Requeued flit 1780
Requeued flit 1737
Requeued flit 1657
Requeued flit 1822
Requeued flit 1797
Requeued flit 1764
Requeued flit 1667
Requeued flit 1778
Requeued flit 1696
Requeued flit 1566
Requeued flit 1824
Requeued flit 1691
Requeued flit 1475
Requeued flit 1816
Requeued flit 1771
Requeued flit 1783
Requeued flit 1838
Requeued flit 1747
Requeued flit 1775
Requeued flit 1798
Requeued flit 1763
Requeued flit 1728
Requeued flit 1795
Requeued flit 1751
Requeued flit 1815
Requeued flit 1660
Requeued flit 1635
Requeued flit 1706
Requeued flit 1743
Requeued flit 1684
Requeued flit 1852
Requeued flit 1833
Requeued flit 1822
Requeued flit 1802
Requeued flit 1747
Requeued flit 1797
Requeued flit 1838
Requeued flit 1806
Requeued flit 1715
Requeued flit 1777
Requeued flit 1584
Requeued flit 1830
Requeued flit 1783
Requeued flit 1824
Requeued flit 1683
Requeued flit 1845
Requeued flit 1877
Requeued flit 1853
Requeued flit 1759
Requeued flit 1735
Requeued flit 1738
Requeued flit 1851
Requeued flit 1775
Requeued flit 1872
Requeued flit 1635
Requeued flit 1547
Requeued flit 1802
Requeued flit 1844
Requeued flit 1875
Requeued flit 1827
Requeued flit 1895
Requeued flit 1657
Requeued flit 1798
Requeued flit 1797
Requeued flit 1691
Requeued flit 1884
Requeued flit 1575
Requeued flit 1822
Requeued flit 1747
Requeued flit 1778
Requeued flit 1904
Requeued flit 1902
Requeued flit 1915
Requeued flit 1848
Requeued flit 1890
Requeued flit 1715
Requeued flit 1923
Requeued flit 1931
Requeued flit 1764
Requeued flit 1833
Requeued flit 1858
Requeued flit 1929
Requeued flit 1922
Requeued flit 1805
Requeued flit 1879
Requeued flit 1921
Requeued flit 1877
Requeued flit 1918
Requeued flit 1916
Requeued flit 1807
Requeued flit 1751
Requeued flit 1778
Requeued flit 1880
Requeued flit 1791
Requeued flit 1710
Requeued flit 1830
Requeued flit 1861
Requeued flit 1683
Requeued flit 1866
Requeued flit 1961
Requeued flit 1917
Requeued flit 1848
Requeued flit 1867
Requeued flit 1894
Requeued flit 1892
Requeued flit 1881
Requeued flit 1872
Requeued flit 1906
Requeued flit 1887
Requeued flit 1802
Requeued flit 1951
Requeued flit 1760
Requeued flit 1869
Requeued flit 1916
Requeued flit 1865
Requeued flit 1591
Requeued flit 1427
Requeued flit 1963
Requeued flit 1891
Requeued flit 1850
Requeued flit 1950
Requeued flit 1873
Requeued flit 1480
Requeued flit 1945
Requeued flit 1955
Requeued flit 1986
Requeued flit 1810
Requeued flit 1843
Requeued flit 1487
Requeued flit 1958
Requeued flit 1660
Requeued flit 1861
Requeued flit 1795
Requeued flit 1973
Requeued flit 1989
Requeued flit 1979
Requeued flit 1790
Requeued flit 1945
Requeued flit 1848
Requeued flit 1898
Requeued flit 1965
Requeued flit 1480
Requeued flit 1693
Requeued flit 1879
Requeued flit 1710
Requeued flit 1999
Requeued flit 2021
Requeued flit 1961
Requeued flit 1934
Requeued flit 1913
Requeued flit 1956
Requeued flit 2001
Requeued flit 2002
Requeued flit 2020
Requeued flit 1808
Requeued flit 2038
Requeued flit 1951
Requeued flit 1955
Requeued flit 1969
Requeued flit 1802
Requeued flit 1810
Requeued flit 2035
Requeued flit 1735
Requeued flit 1967
Requeued flit 2045
Requeued flit 1943
Requeued flit 1958
Requeued flit 1960
Requeued flit 2027
Requeued flit 1994
Requeued flit 1952
Requeued flit 1868
Requeued flit 1850
Requeued flit 1866
Requeued flit 2031
Requeued flit 1760
Requeued flit 2048
Requeued flit 1993
Requeued flit 2039
Requeued flit 2034
Requeued flit 2046
Requeued flit 2032
Requeued flit 1830
Requeued flit 2053
Requeued flit 2044
Requeued flit 2061
Requeued flit 2006
Requeued flit 1777
Requeued flit 1951
Requeued flit 2016
Requeued flit 2073
Requeued flit 1943
Requeued flit 2021
Requeued flit 1898
Requeued flit 2001
Requeued flit 2013
Requeued flit 2028
Requeued flit 1798
Requeued flit 1591
Requeued flit 2019
Requeued flit 2037
Requeued flit 2029
Requeued flit 1693
Requeued flit 1875
Requeued flit 1989
Requeued flit 2089
Requeued flit 1865
Requeued flit 2059
Requeued flit 1941
Requeued flit 2060
Requeued flit 2012
Requeued flit 1660
Requeued flit 2062
Requeued flit 1861
Requeued flit 2027
Requeued flit 2075
Requeued flit 1897
Requeued flit 1922
Requeued flit 2018
Requeued flit 1949
Requeued flit 2021
Requeued flit 2052
Requeued flit 2068
Requeued flit 1945
Requeued flit 2099
Requeued flit 2106
Requeued flit 1934
Requeued flit 1982
Requeued flit 2069
Requeued flit 2083
Requeued flit 2094
Requeued flit 2090
Requeued flit 2097
Requeued flit 2080
Requeued flit 2132
Requeued flit 2070
Requeued flit 2131
Requeued flit 1913
Requeued flit 2117
Requeued flit 2139
Requeued flit 2112
Requeued flit 2051
Requeued flit 2101
Requeued flit 2107
Requeued flit 1872
Requeued flit 2089
Requeued flit 2149
Requeued flit 2104
Requeued flit 2080
Requeued flit 2053
Requeued flit 2148
Requeued flit 2098
Requeued flit 2152
Requeued flit 2105
Requeued flit 2094
Requeued flit 1953
Requeued flit 2097
Requeued flit 1847
Requeued flit 2012
Requeued flit 2036
Requeued flit 2116
Requeued flit 2091
Requeued flit 2177
Requeued flit 2157
Requeued flit 2191
Requeued flit 2152
Requeued flit 1460
Requeued flit 1738
Requeued flit 2107
Requeued flit 2175
Requeued flit 2147
Requeued flit 2091
Requeued flit 2154
Requeued flit 2127
Requeued flit 2164
Requeued flit 2100
Requeued flit 2184
Requeued flit 2122
Requeued flit 2144
Requeued flit 1738
Requeued flit 2222
Requeued flit 2109
Requeued flit 2221
Requeued flit 1943
Requeued flit 2177
Requeued flit 2171
Requeued flit 2083
Requeued flit 2215
Requeued flit 2227
Requeued flit 2155
Requeued flit 2214
Requeued flit 2135
Requeued flit 2027
Requeued flit 2131
Requeued flit 2115
Requeued flit 2190
Requeued flit 2207
Requeued flit 2182
Requeued flit 2239
Requeued flit 2179
Requeued flit 2199
Requeued flit 2256
Requeued flit 2218
Requeued flit 2053
Requeued flit 2238
Requeued flit 2198
Requeued flit 2194
Requeued flit 1847
Requeued flit 2186
Requeued flit 2027
Requeued flit 2253
Requeued flit 2126
Requeued flit 2174
Requeued flit 2258
Requeued flit 1738
Requeued flit 2274
Requeued flit 2053
Requeued flit 2148
Requeued flit 2257
Requeued flit 2277
Requeued flit 2144
Requeued flit 2147
Requeued flit 2286
Requeued flit 2105
Requeued flit 2233
Requeued flit 2292
Requeued flit 2160
Requeued flit 2094
Requeued flit 2215
Requeued flit 2162
Requeued flit 2157
Requeued flit 2133
Requeued flit 2270
Requeued flit 2243
Requeued flit 2263
Requeued flit 2192
Requeued flit 2295
Requeued flit 2272
Requeued flit 2308
Requeued flit 2147
Requeued flit 2276
Requeued flit 2285
Requeued flit 2151
Requeued flit 2111
Requeued flit 2297
Requeued flit 2318
Requeued flit 2239
Requeued flit 2305
Requeued flit 2053
Requeued flit 2321
Requeued flit 2301
Requeued flit 2177
Requeued flit 2298
Requeued flit 2294
Requeued flit 2283
Requeued flit 2250
Requeued flit 1847
Requeued flit 2233
Requeued flit 2249
Requeued flit 2316
Requeued flit 2080
Requeued flit 2161
Requeued flit 2307
Requeued flit 1872
Requeued flit 2317
Requeued flit 2311
Requeued flit 2190
Requeued flit 2329
Requeued flit 2274
Requeued flit 2325
Requeued flit 2197
Requeued flit 2286
Requeued flit 2309
Requeued flit 2213
Requeued flit 2310
Requeued flit 2300
Requeued flit 2306
Requeued flit 2281
Requeued flit 2356
Requeued flit 2227
Requeued flit 2308
Requeued flit 2232
Requeued flit 2304
Requeued flit 2318
Requeued flit 2303
Requeued flit 2326
Requeued flit 2297
Requeued flit 2038
Requeued flit 2284
Requeued flit 2324
Requeued flit 2279
Requeued flit 2365
Requeued flit 2375
Requeued flit 2294
Requeued flit 2272
Requeued flit 2303
Requeued flit 2109
Requeued flit 2198
Requeued flit 2341
Requeued flit 1887
Requeued flit 2239
Requeued flit 2304
Requeued flit 2289
Requeued flit 2374
Requeued flit 2233
Requeued flit 2127
Requeued flit 2105
Requeued flit 2379
Requeued flit 2330
Requeued flit 2400
Requeued flit 2401
Requeued flit 2325
Requeued flit 2318
Requeued flit 2397
Requeued flit 2383
Requeued flit 2404
Requeued flit 2390
Requeued flit 1872
Requeued flit 2201
Requeued flit 2168
Requeued flit 2215
Requeued flit 2344
Requeued flit 2161
Requeued flit 2374
Requeued flit 1847
Requeued flit 2371
Requeued flit 2388
Requeued flit 2328
Requeued flit 2375
Requeued flit 2396
Requeued flit 2385
Requeued flit 2277
Requeued flit 2380
Requeued flit 2382
Requeued flit 2334
Requeued flit 2425
Requeued flit 2376
Requeued flit 2365
Requeued flit 2402
Requeued flit 2186
Requeued flit 2269
Requeued flit 2384
Requeued flit 2413
Requeued flit 2215
Requeued flit 2126
Requeued flit 2390
Requeued flit 2370
Requeued flit 2376
Requeued flit 2380
Requeued flit 2161
Requeued flit 2393
Requeued flit 2401
Requeued flit 2233
Requeued flit 2327
Requeued flit 2189
Requeued flit 2365
Requeued flit 2299
Requeued flit 2333
Requeued flit 2387
Requeued flit 2352
Requeued flit 2434
Requeued flit 2403
Requeued flit 2417
Requeued flit 2401
Requeued flit 2449
Requeued flit 2447
Requeued flit 2470
Requeued flit 2435
Requeued flit 2404
Requeued flit 2465
Requeued flit 2488
Requeued flit 2369
Requeued flit 2454
Requeued flit 2444
Requeued flit 2329
Requeued flit 2440
Requeued flit 2387
Requeued flit 2109
Requeued flit 2446
Requeued flit 2374
Requeued flit 2407
Requeued flit 2463
Requeued flit 2092
Requeued flit 2499
Requeued flit 2357
Requeued flit 2469
Requeued flit 2427
Requeued flit 2504
Requeued flit 2471
Requeued flit 2461
Requeued flit 2247
Requeued flit 2485
Requeued flit 2365
Requeued flit 2390
Requeued flit 2452
Requeued flit 2443
Requeued flit 2517
Requeued flit 2508
Requeued flit 2479
Requeued flit 2168
Requeued flit 2495
Requeued flit 2536
Requeued flit 2367
Requeued flit 2528
Requeued flit 2461
Requeued flit 1872
Requeued flit 2497
Requeued flit 2489
Requeued flit 2516
Requeued flit 2500
Requeued flit 2543
Requeued flit 2510
Requeued flit 2394
Requeued flit 2450
Requeued flit 2444
Requeued flit 2369
Requeued flit 2511
Requeued flit 2463
Requeued flit 2521
Requeued flit 2518
Requeued flit 2445
Requeued flit 2277
Requeued flit 2477
Requeued flit 2510
Requeued flit 2536
Requeued flit 2483
Requeued flit 2486
Requeued flit 2464
Requeued flit 2367
Requeued flit 2574
Requeued flit 2333
Requeued flit 2551
Requeued flit 2269
Requeued flit 2474
Requeued flit 2528
Requeued flit 2365
Requeued flit 2563
Requeued flit 2570
Requeued flit 2432
Requeued flit 2394
Requeued flit 2508
Requeued flit 2530
Requeued flit 2534
Requeued flit 2537
Requeued flit 2549
Requeued flit 2578
Requeued flit 2478
Requeued flit 2573
Requeued flit 2566
Requeued flit 2575
Requeued flit 2590
Requeued flit 2394
Requeued flit 2379
Requeued flit 2602
Requeued flit 2199
Requeued flit 2483
Requeued flit 2262
Requeued flit 2527
Requeued flit 2597
Requeued flit 2402
Requeued flit 2626
Requeued flit 2463
Requeued flit 2530
Requeued flit 2612
Requeued flit 2631
Requeued flit 2450
Requeued flit 2573
Requeued flit 2601
Requeued flit 2604
Requeued flit 2614
Requeued flit 2647
Requeued flit 2483
Requeued flit 2577
Requeued flit 2594
Requeued flit 2603
Requeued flit 2510
Requeued flit 2640
Requeued flit 2445
Requeued flit 2660
Requeued flit 2528
Requeued flit 2546
Requeued flit 2645
Requeued flit 2578
Requeued flit 2637
Requeued flit 2624
Requeued flit 2642
Requeued flit 2633
Requeued flit 2602
Requeued flit 2632
Requeued flit 2247
Requeued flit 2648
Requeued flit 2644
Requeued flit 2668
Requeued flit 2376
Requeued flit 2614
Requeued flit 2577
Requeued flit 2639
Requeued flit 2566
Requeued flit 2502
Requeued flit 2623
Requeued flit 2262
Requeued flit 2617
Requeued flit 2621
Requeued flit 2693
Requeued flit 2635
Requeued flit 2651
Requeued flit 2685
Requeued flit 2613
Requeued flit 2676
Requeued flit 2402
Requeued flit 2663
Requeued flit 2262
Requeued flit 2546
Requeued flit 2578
Requeued flit 2627
Requeued flit 2653
Requeued flit 2602
Requeued flit 2471
Requeued flit 2692
Requeued flit 2618
Requeued flit 2568
Requeued flit 2723
Requeued flit 2665
Requeued flit 2626
Requeued flit 2630
Requeued flit 2688
Requeued flit 2616
Requeued flit 2669
Requeued flit 2704
Requeued flit 2713
Requeued flit 2687
Requeued flit 2588
Requeued flit 2643
Requeued flit 2621
Requeued flit 2491
Requeued flit 2735
Requeued flit 2625
Requeued flit 2189
Requeued flit 2568
Requeued flit 2480
Requeued flit 2660
Requeued flit 2710
Requeued flit 2697
Requeued flit 2471
Requeued flit 2580
Requeued flit 2437
Requeued flit 2761
Requeued flit 2740
Requeued flit 2720
Requeued flit 2663
Requeued flit 2712
Requeued flit 2262
Requeued flit 2741
Requeued flit 2690
Requeued flit 2709
Requeued flit 2428
Requeued flit 2688
Requeued flit 2632
Requeued flit 2669
Requeued flit 2659
Requeued flit 2732
Requeued flit 2665
Requeued flit 2703
Requeued flit 2769
Requeued flit 2730
Requeued flit 2731
Requeued flit 2729
Requeued flit 2755
Requeued flit 2631
Requeued flit 2640
Requeued flit 2641
Requeued flit 2722
Requeued flit 2712
Requeued flit 2764
Requeued flit 2752
Requeued flit 2491
Requeued flit 2726
Requeued flit 2621
Requeued flit 2723
Requeued flit 2677
Requeued flit 2776
Requeued flit 2650
Requeued flit 2730
Requeued flit 2704
Requeued flit 2713
Requeued flit 2781
Requeued flit 2510
Requeued flit 2743
Requeued flit 2750
Requeued flit 2826
Requeued flit 2659
Requeued flit 2773
Requeued flit 2757
Requeued flit 2779
Requeued flit 2749
Requeued flit 2690
Requeued flit 2781
Requeued flit 2744
Requeued flit 2769
Requeued flit 2650
Requeued flit 2714
Requeued flit 2687
Requeued flit 2803
Requeued flit 2834
Requeued flit 2832
Requeued flit 2820
Requeued flit 2828
Requeued flit 2717
Requeued flit 2795
Requeued flit 2771
Requeued flit 2776
Requeued flit 2858
Requeued flit 2609
Requeued flit 2687
Requeued flit 2810
Requeued flit 2861
Requeued flit 2831
Requeued flit 2874
Requeued flit 2850
Requeued flit 2847
Requeued flit 2653
Requeued flit 2789
Requeued flit 2860
Requeued flit 2799
Requeued flit 2823
Requeued flit 2870
Requeued flit 2843
Requeued flit 2659
Requeued flit 2853
Requeued flit 2730
Requeued flit 2846
Requeued flit 2784
Requeued flit 2897
Requeued flit 2799
Requeued flit 2817
Requeued flit 2819
Requeued flit 2827
Requeued flit 2815
Requeued flit 2262
Requeued flit 2743
Requeued flit 2913
Requeued flit 2778
Requeued flit 2884
Requeued flit 2836
Requeued flit 2785
Requeued flit 2899
Requeued flit 2902
Requeued flit 2803
Requeued flit 2811
Requeued flit 2774
Requeued flit 2724
Requeued flit 2809
Requeued flit 2332
Requeued flit 2738
Requeued flit 2756
Requeued flit 2831
Requeued flit 2930
Requeued flit 2907
Requeued flit 2911
Requeued flit 2751
Requeued flit 2764
Requeued flit 2909
Requeued flit 2785
Requeued flit 2942
Requeued flit 2262
Requeued flit 2903
Requeued flit 2879
Requeued flit 2926
Requeued flit 2890
Requeued flit 2916
Requeued flit 2874
Requeued flit 2898
Requeued flit 2858
Requeued flit 2595
Requeued flit 2824
Requeued flit 2826
Requeued flit 2704
Requeued flit 2917
Requeued flit 2904
Requeued flit 2905
Requeued flit 2954
Requeued flit 2901
Requeued flit 2942
Requeued flit 2871
Requeued flit 2892
Requeued flit 2771
Requeued flit 2492
Requeued flit 2924
Requeued flit 2852
Requeued flit 2878
Requeued flit 2750
Requeued flit 2909
Requeued flit 2942
Requeued flit 2926
Requeued flit 2803
Requeued flit 2961
Requeued flit 2973
Requeued flit 2956
Requeued flit 2774
Requeued flit 2814
Requeued flit 2921
Requeued flit 2706
Requeued flit 2937
Requeued flit 2751
Requeued flit 2950
Requeued flit 2910
Requeued flit 2918
Requeued flit 2975
Requeued flit 2935
Requeued flit 2972
Requeued flit 2987
Requeued flit 2901
Requeued flit 2773
Requeued flit 2774
Requeued flit 2691
Requeued flit 3021
Requeued flit 2824
Requeued flit 2967
Requeued flit 2947
Requeued flit 2980
Requeued flit 2963
Requeued flit 2909
Requeued flit 2979
Requeued flit 2831
Requeued flit 2882
Requeued flit 2994
Requeued flit 2824
Requeued flit 2998
Requeued flit 2899
Requeued flit 2960
Requeued flit 2910
Requeued flit 3045
Requeued flit 3000
Requeued flit 2935
Requeued flit 2944
Requeued flit 3031
Requeued flit 2961
Requeued flit 2959
Requeued flit 3005
Requeued flit 3029
Requeued flit 2492
Requeued flit 3060
Requeued flit 3059
Requeued flit 2831
Requeued flit 2947
Requeued flit 3040
Requeued flit 3053
Requeued flit 3070
Requeued flit 2903
Requeued flit 2913
Requeued flit 3080
Requeued flit 3030
Requeued flit 2910
Requeued flit 3039
Requeued flit 3013
Requeued flit 2983
Requeued flit 2966
Requeued flit 3085
Requeued flit 3034
Requeued flit 2973
Requeued flit 3049
Requeued flit 3002
Requeued flit 3012
Requeued flit 3014
Requeued flit 3091
Requeued flit 3057
Requeued flit 3109
Requeued flit 2994
Requeued flit 3042
Requeued flit 3077
Requeued flit 2882
Requeued flit 3009
Requeued flit 3065
Requeued flit 3082
Requeued flit 2929
Requeued flit 3039
Requeued flit 3046
Requeued flit 3064
Requeued flit 3050
Requeued flit 2981
Requeued flit 3102
Requeued flit 2937
Requeued flit 2992
Requeued flit 2988
Requeued flit 3076
Requeued flit 3007
Requeued flit 3031
Requeued flit 3070
Requeued flit 2738
Requeued flit 3128
Requeued flit 2943
Requeued flit 3020
Requeued flit 2991
Requeued flit 3127
Requeued flit 3101
Requeued flit 3121
Requeued flit 3044
Requeued flit 3065
Requeued flit 3046
Requeued flit 3045
Requeued flit 2954
Requeued flit 2773
Requeued flit 2910
Requeued flit 3032
Requeued flit 2903
Requeued flit 2929
Requeued flit 2742
Requeued flit 2703
Requeued flit 3137
Requeued flit 3161
Requeued flit 3142
Requeued flit 3117
Requeued flit 2937
Requeued flit 3103
Requeued flit 2846
Requeued flit 3154
Requeued flit 2943
Requeued flit 2988
Requeued flit 3090
Requeued flit 3147
Requeued flit 3022
Requeued flit 2882
Requeued flit 3127
Requeued flit 2929
Requeued flit 3034
Requeued flit 2831
Requeued flit 3171
Requeued flit 3187
Requeued flit 3103
Requeued flit 3030
Requeued flit 3098
Requeued flit 3136
Requeued flit 3002
Requeued flit 3131
Requeued flit 2988
Requeued flit 3119
Requeued flit 3095
Requeued flit 2992
Requeued flit 3065
Requeued flit 3035
Requeued flit 3046
Requeued flit 3190
Requeued flit 3056
Requeued flit 3178
Requeued flit 3172
Requeued flit 3188
Requeued flit 3201
Requeued flit 3068
Requeued flit 3207
Requeued flit 3211
Requeued flit 3085
Requeued flit 3040
Requeued flit 3110
Requeued flit 3196
Requeued flit 3191
Requeued flit 3210
Requeued flit 3221
Requeued flit 3089
Requeued flit 3204
Requeued flit 3186
Requeued flit 3177
Requeued flit 3176
Requeued flit 3082
Requeued flit 3062
Requeued flit 3049
Requeued flit 3164
Requeued flit 3217
Requeued flit 3115
Requeued flit 3109
Requeued flit 3139
Requeued flit 3150
Requeued flit 3171
Requeued flit 3213
Requeued flit 3101
Requeued flit 2943
Requeued flit 3255
Requeued flit 3194
Requeued flit 3062
Requeued flit 3195
Requeued flit 3188
Requeued flit 3164
Requeued flit 3245
Requeued flit 3174
Requeued flit 3200
Requeued flit 3209
Requeued flit 3264
Requeued flit 3098
Requeued flit 3261
Requeued flit 3186
Requeued flit 3090
Requeued flit 3123
Requeued flit 2988
Requeued flit 3259
Requeued flit 3124
Requeued flit 3235
Requeued flit 3217
Requeued flit 3237
Requeued flit 3213
Requeued flit 3163
Requeued flit 3127
Requeued flit 3242
Requeued flit 3148
Requeued flit 3194
Requeued flit 3119
Requeued flit 3160
Requeued flit 3166
Requeued flit 3203
Requeued flit 3229
Requeued flit 3224
Requeued flit 3098
Requeued flit 3176
Requeued flit 3247
Requeued flit 3030
Requeued flit 3159
Requeued flit 3260
Requeued flit 3242
Requeued flit 3310
Requeued flit 3286
Requeued flit 2992
Requeued flit 3228
Requeued flit 3308
Requeued flit 3270
Requeued flit 3115
Requeued flit 3293
Requeued flit 3209
Requeued flit 3305
Requeued flit 3110
Requeued flit 3289
Requeued flit 3127
Requeued flit 3284
Requeued flit 3119
Requeued flit 3312
Requeued flit 3176
Requeued flit 3307
Requeued flit 3126
Requeued flit 3250
Requeued flit 3204
Requeued flit 3315
Requeued flit 3335
Requeued flit 3318
Requeued flit 3174
Requeued flit 3337
Requeued flit 3271
Requeued flit 3379
Requeued flit 3344
Requeued flit 3307
Requeued flit 3314
Requeued flit 3323
Requeued flit 3285
Requeued flit 3090
Requeued flit 3204
Requeued flit 3374
Requeued flit 3224
Requeued flit 3192
Requeued flit 3300
Requeued flit 3260
Requeued flit 3376
Requeued flit 3377
Requeued flit 3382
Requeued flit 3292
Requeued flit 2992
Requeued flit 3324
Requeued flit 3283
Requeued flit 3398
Requeued flit 3186
Requeued flit 3401
Requeued flit 3369
Requeued flit 3359
Requeued flit 3139
Requeued flit 3381
Requeued flit 3400
Requeued flit 3049
Requeued flit 3409
Requeued flit 3386
Requeued flit 3403
Requeued flit 3383
Requeued flit 3309
Requeued flit 3269
Requeued flit 3371
Requeued flit 3346
Requeued flit 3363
Requeued flit 3313
Requeued flit 3367
Requeued flit 3425
Requeued flit 3392
Requeued flit 3333
Requeued flit 3375
Requeued flit 3226
Requeued flit 3420
Requeued flit 3412
Requeued flit 3418
Requeued flit 3350
Requeued flit 3344
Requeued flit 3290
Requeued flit 3352
Requeued flit 3343
Requeued flit 3428
Requeued flit 3390
Requeued flit 3409
Requeued flit 3324
Requeued flit 3394
Requeued flit 3300
Requeued flit 3429
Requeued flit 3383
Requeued flit 3442
Requeued flit 3373
Requeued flit 3386
Requeued flit 3419
Requeued flit 3317
Requeued flit 3445
Requeued flit 3269
Requeued flit 3375
Requeued flit 3421
Requeued flit 3296
Requeued flit 3413
Requeued flit 3392
Requeued flit 3329
Requeued flit 3391
Requeued flit 3440
Requeued flit 3226
Requeued flit 3457
Requeued flit 3447
Requeued flit 3423
Requeued flit 3439
Requeued flit 3333
Requeued flit 3109
Requeued flit 3431
Requeued flit 3357
Requeued flit 3477
Requeued flit 3365
Requeued flit 3382
Requeued flit 3425
Requeued flit 3418
Requeued flit 3294
Requeued flit 3505
Requeued flit 3441
Requeued flit 3307
Requeued flit 3464
Requeued flit 3374
Requeued flit 3456
Requeued flit 3324
Requeued flit 3427
Requeued flit 3510
Requeued flit 3410
Requeued flit 3493
Requeued flit 3506
Requeued flit 3414
Requeued flit 3484
Requeued flit 3474
Requeued flit 3494
Requeued flit 3419
Requeued flit 3495
Requeued flit 3421
Requeued flit 3369
Requeued flit 3531
Requeued flit 3463
Requeued flit 3469
Requeued flit 3521
Requeued flit 3498
Requeued flit 3375
Requeued flit 3508
Requeued flit 3438
Requeued flit 3525
Requeued flit 3423
Requeued flit 3474
Requeued flit 3515
Requeued flit 3552
Requeued flit 3322
Requeued flit 3374
Requeued flit 3441
Requeued flit 3477
Requeued flit 3341
Requeued flit 3520
Requeued flit 3485
Requeued flit 3558
Requeued flit 3494
Requeued flit 3545
Requeued flit 3226
Requeued flit 3392
Requeued flit 3454
Requeued flit 3414
Requeued flit 3548
Requeued flit 3515
Requeued flit 3451
Requeued flit 3393
Requeued flit 3361
Requeued flit 3562
Requeued flit 3563
Requeued flit 3582
Requeued flit 3570
Requeued flit 3539
Requeued flit 3534
Requeued flit 3483
Requeued flit 3503
Requeued flit 3572
Requeued flit 3592
Requeued flit 3490
Requeued flit 3581
Requeued flit 3537
Requeued flit 3373
Requeued flit 3281
Requeued flit 3522
Requeued flit 3291
Requeued flit 3501
Requeued flit 3579
Requeued flit 3557
Requeued flit 3555
Requeued flit 3602
Requeued flit 3597
Requeued flit 3521
Requeued flit 3603
Requeued flit 3452
Requeued flit 3589
Requeued flit 3561
Requeued flit 3520
Requeued flit 3374
Requeued flit 3505
Requeued flit 3607
Requeued flit 3587
Requeued flit 3598
Requeued flit 3298
Requeued flit 3549
Requeued flit 3551
Requeued flit 3514
Requeued flit 3582
Requeued flit 3329
Requeued flit 3369
Requeued flit 3630
Requeued flit 3444
Requeued flit 3588
Requeued flit 3320
Requeued flit 3483
Requeued flit 3578
Requeued flit 3404
Requeued flit 3618
Requeued flit 3529
Requeued flit 3558
Requeued flit 3508
Requeued flit 3564
Requeued flit 3612
Requeued flit 3477
Requeued flit 3629
Requeued flit 3442
Requeued flit 3557
Requeued flit 3503
Requeued flit 3489
Requeued flit 3550
Requeued flit 3587
Requeued flit 3634
Requeued flit 3298
Requeued flit 3485
Requeued flit 3361
Requeued flit 3620
Requeued flit 3589
Requeued flit 3357
Requeued flit 3373
Requeued flit 3651
Requeued flit 3451
Requeued flit 3452
Requeued flit 3643
Requeued flit 3281
Requeued flit 3649
Requeued flit 3477
Requeued flit 3604
Requeued flit 3226
Requeued flit 3454
Requeued flit 3645
Requeued flit 3386
Requeued flit 3612
Requeued flit 3650
Requeued flit 3442
Requeued flit 3667
Requeued flit 3656
Requeued flit 3662
Requeued flit 3654
Requeued flit 3508
Requeued flit 3640
Requeued flit 3521
Requeued flit 3683
Requeued flit 3679
Requeued flit 3659
Requeued flit 3579
Requeued flit 3586
Requeued flit 3689
Requeued flit 3552
Requeued flit 3637
Requeued flit 3557
Requeued flit 3670
Requeued flit 3658
Requeued flit 3508
Requeued flit 3717
Requeued flit 3615
Requeued flit 3703
Requeued flit 3608
Requeued flit 3704
Requeued flit 3597
Requeued flit 3684
Requeued flit 3585
Requeued flit 3654
Requeued flit 3582
Requeued flit 3612
Requeued flit 3724
Requeued flit 3700
Requeued flit 3685
Requeued flit 3672
Requeued flit 3693
Requeued flit 3386
Requeued flit 3628
Requeued flit 3689
Requeued flit 3750
Requeued flit 3655
Requeued flit 3681
Requeued flit 3692
Requeued flit 3686
Requeued flit 3735
Requeued flit 3728
Requeued flit 3667
Requeued flit 3699
Requeued flit 3763
Requeued flit 3712
Requeued flit 3327
Requeued flit 3549
Requeued flit 3552
Requeued flit 3637
Requeued flit 3743
Requeued flit 3589
Requeued flit 3736
Requeued flit 3723
Requeued flit 3586
Requeued flit 3629
Requeued flit 3645
Requeued flit 3341
Requeued flit 3748
Requeued flit 3500
Requeued flit 3683
Requeued flit 3534
Requeued flit 3732
Requeued flit 3635
Requeued flit 3641
Requeued flit 3679
Requeued flit 3702
Requeued flit 3746
Requeued flit 3779
Requeued flit 3745
Requeued flit 3661
Requeued flit 3735
Requeued flit 3731
Requeued flit 3768
Requeued flit 3774
Requeued flit 3597
Requeued flit 3648
Requeued flit 3552
Requeued flit 3704
Requeued flit 3792
Requeued flit 3515
Requeued flit 3719
Requeued flit 3723
Requeued flit 3722
Requeued flit 3662
Requeued flit 3685
Requeued flit 3753
Requeued flit 3657
Requeued flit 3668
Requeued flit 3791
Requeued flit 3687
Requeued flit 3695
Requeued flit 3563
Requeued flit 3761
Requeued flit 3679
Requeued flit 3804
Requeued flit 3728
Requeued flit 3743
Requeued flit 3757
Requeued flit 3807
Requeued flit 3745
Requeued flit 3731
Requeued flit 3586
Requeued flit 3653
Requeued flit 3647
Requeued flit 3451
Requeued flit 3454
Requeued flit 3515
Requeued flit 3751
Requeued flit 3822
Requeued flit 3825
Requeued flit 3714
Requeued flit 3689
Requeued flit 3720
Requeued flit 3815
Requeued flit 3768
Requeued flit 3795
Requeued flit 3632
Requeued flit 3687
Requeued flit 3778
Requeued flit 3500
Requeued flit 3830
Requeued flit 3668
Requeued flit 3692
Requeued flit 3803
Requeued flit 3837
Requeued flit 3638
Requeued flit 3860
Requeued flit 3816
Requeued flit 3789
Requeued flit 3832
Requeued flit 3541
Requeued flit 3818
Requeued flit 3872
Requeued flit 3826
Requeued flit 3877
Requeued flit 3777
Requeued flit 3806
Requeued flit 3844
Requeued flit 3821
Requeued flit 3713
Requeued flit 3854
Requeued flit 3744
Requeued flit 3836
Requeued flit 3685
Requeued flit 3840
Requeued flit 3841
Requeued flit 3888
Requeued flit 3856
Requeued flit 3872
Requeued flit 3879
Requeued flit 3832
Requeued flit 3648
Requeued flit 3852
Requeued flit 3722
Requeued flit 3912
Requeued flit 3880
Requeued flit 3714
Requeued flit 3818
Requeued flit 3869
Requeued flit 3897
Requeued flit 3754
Requeued flit 3739
Requeued flit 3736
Requeued flit 3913
Requeued flit 3791
Requeued flit 3850
Requeued flit 3862
Requeued flit 3500
Requeued flit 3869
Requeued flit 3915
Requeued flit 3942
Requeued flit 3928
Requeued flit 3925
Requeued flit 3917
Requeued flit 3884
Requeued flit 3921
Requeued flit 3933
Requeued flit 3910
Requeued flit 3913
Requeued flit 3932
Requeued flit 3792
Requeued flit 3777
Requeued flit 3655
Requeued flit 3959
Requeued flit 3713
Requeued flit 3903
Requeued flit 3907
Requeued flit 3921
Requeued flit 3889
Requeued flit 3939
Requeued flit 3892
Requeued flit 3653
Requeued flit 3771
Requeued flit 3647
Requeued flit 3882
Requeued flit 3666
Requeued flit 3929
Requeued flit 3942
Requeued flit 3948
Requeued flit 3873
Requeued flit 3934
Requeued flit 3989
Requeued flit 3925
Requeued flit 3915
Requeued flit 3953
Requeued flit 4008
Requeued flit 3923
Requeued flit 3872
Requeued flit 3917
Requeued flit 3807
Requeued flit 4015
Requeued flit 3993
Requeued flit 3988
Requeued flit 4001
Requeued flit 3853
Requeued flit 3854
Requeued flit 3973
Requeued flit 3862
Requeued flit 3968
Requeued flit 3875
Requeued flit 3757
Requeued flit 3653
Requeued flit 3976
Requeued flit 3979
Requeued flit 3936
Requeued flit 3951
Requeued flit 4027
Requeued flit 3997
Requeued flit 4015
Requeued flit 3929
Requeued flit 3942
Requeued flit 4011
Requeued flit 3928
Requeued flit 3805
Requeued flit 4036
Requeued flit 4031
Requeued flit 4053
Requeued flit 3996
Requeued flit 4024
Requeued flit 3920
Requeued flit 3986
Requeued flit 4051
Requeued flit 4020
Requeued flit 3975
Requeued flit 4034
Requeued flit 4005
Requeued flit 3988
Requeued flit 3742
Requeued flit 3973
Requeued flit 4064
Requeued flit 3995
Requeued flit 3997
Requeued flit 3965
Requeued flit 3850
Requeued flit 4046
Requeued flit 3977
Requeued flit 4065
Requeued flit 4083
Requeued flit 4003
Requeued flit 3985
Requeued flit 4089
Requeued flit 3951
Requeued flit 4087
Requeued flit 3972
Requeued flit 3938
Requeued flit 3666
Requeued flit 4052
Requeued flit 4045
Requeued flit 4005
Requeued flit 3732
Requeued flit 3857
Requeued flit 4027
Requeued flit 4094
Requeued flit 4125
Requeued flit 4075
Requeued flit 3995
Requeued flit 3968
Requeued flit 4088
Requeued flit 4070
Requeued flit 4043
Requeued flit 4106
Requeued flit 3951
Requeued flit 3938
Requeued flit 4096
Requeued flit 4031
Requeued flit 4127
Requeued flit 4019
Requeued flit 3977
Requeued flit 3961
Requeued flit 4036
Requeued flit 3967
Requeued flit 4122
Requeued flit 4017
Requeued flit 4058
Requeued flit 4080
Requeued flit 4054
Requeued flit 4046
Requeued flit 4153
Requeued flit 4110
Requeued flit 3927
Requeued flit 4079
Requeued flit 4084
Requeued flit 4161
Requeued flit 4003
Requeued flit 4062
Requeued flit 3850
Requeued flit 3939
Requeued flit 4089
Requeued flit 3857
Requeued flit 3935
Requeued flit 4144
Requeued flit 4060
Requeued flit 4110
Requeued flit 4111
Requeued flit 4173
Requeued flit 4097
Requeued flit 4119
Requeued flit 3981
Requeued flit 3850
Requeued flit 4166
Requeued flit 4089
Requeued flit 4176
Requeued flit 4043
Requeued flit 4172
Requeued flit 4082
Requeued flit 4079
Requeued flit 4133
Requeued flit 3805
Requeued flit 4065
Requeued flit 3767
Requeued flit 4036
Requeued flit 4145
Requeued flit 4127
Requeued flit 4098
Requeued flit 4140
Requeued flit 4088
Requeued flit 4119
Requeued flit 4072
Requeued flit 4158
Requeued flit 4146
Requeued flit 4150
Requeued flit 4064
Requeued flit 4188
Requeued flit 4182
Requeued flit 4212
Requeued flit 4124
Requeued flit 4209
Requeued flit 4118
Requeued flit 3935
Requeued flit 4075
Requeued flit 4082
Requeued flit 4187
Requeued flit 4214
Requeued flit 4098
Requeued flit 4137
Requeued flit 4067
Requeued flit 3981
Requeued flit 3938
Requeued flit 4233
Requeued flit 4138
Requeued flit 4084
Requeued flit 4172
Requeued flit 4065
Requeued flit 4054
Requeued flit 3961
Requeued flit 4199
Requeued flit 4228
Requeued flit 4245
Requeued flit 4112
Requeued flit 4195
Requeued flit 4247
Requeued flit 4103
Requeued flit 4251
Requeued flit 4028
Requeued flit 4219
Requeued flit 3938
Requeued flit 4207
Requeued flit 4191
Requeued flit 4210
Requeued flit 3806
Requeued flit 3997
Requeued flit 3979
Requeued flit 4202
Requeued flit 4221
Requeued flit 4181
Requeued flit 4249
Requeued flit 4262
Requeued flit 4177
Requeued flit 4195
Requeued flit 4115
Requeued flit 3961
Requeued flit 4082
Requeued flit 4231
Requeued flit 3981
Requeued flit 4243
Requeued flit 4182
Requeued flit 4258
Requeued flit 4244
Requeued flit 4118
Requeued flit 4218
Requeued flit 4216
Requeued flit 4046
Requeued flit 4277
Requeued flit 4185
Requeued flit 4196
Requeued flit 4155
Requeued flit 4171
Requeued flit 4172
Requeued flit 4246
Requeued flit 4213
Requeued flit 4084
Requeued flit 4204
Requeued flit 4189
Requeued flit 4297
Requeued flit 4182
Requeued flit 4224
Requeued flit 4253
Requeued flit 4270
Requeued flit 4199
Requeued flit 4225
Requeued flit 4218
Requeued flit 4264
Requeued flit 4230
Requeued flit 3891
Requeued flit 4244
Requeued flit 4279
Requeued flit 4221
Requeued flit 4260
Requeued flit 4310
Requeued flit 4220
Requeued flit 4240
Requeued flit 4098
Requeued flit 4194
Requeued flit 3951
Requeued flit 4283
Requeued flit 4324
Requeued flit 4208
Requeued flit 4278
Requeued flit 4198
Requeued flit 4204
Requeued flit 4293
Requeued flit 4273
Requeued flit 4322
Requeued flit 4301
Requeued flit 4290
Requeued flit 4088
Requeued flit 4318
Requeued flit 4336
Requeued flit 4313
Requeued flit 4338
Requeued flit 4212
Requeued flit 4247
Requeued flit 4271
Requeued flit 4195
Requeued flit 4279
Requeued flit 4196
Requeued flit 4171
Requeued flit 4248
Requeued flit 4240
Requeued flit 4154
Requeued flit 4103
Requeued flit 4303
Requeued flit 4299
Requeued flit 4316
Requeued flit 4314
Requeued flit 4267
Requeued flit 4343
Requeued flit 4188
Requeued flit 4298
Requeued flit 4319
Requeued flit 4260
Requeued flit 4247
Requeued flit 4345
Requeued flit 4197
Requeued flit 4177
Requeued flit 4292
Requeued flit 4291
Requeued flit 4263
Requeued flit 4338
Requeued flit 4366
Requeued flit 4060
Requeued flit 4308
Requeued flit 4372
Requeued flit 4347
Requeued flit 4147
Requeued flit 4350
Requeued flit 4199
Requeued flit 4295
Requeued flit 4322
Requeued flit 4311
Requeued flit 4078
Requeued flit 4335
Requeued flit 4329
Requeued flit 4306
Requeued flit 4356
Requeued flit 4243
Requeued flit 4224
Requeued flit 3981
Requeued flit 4275
Requeued flit 4318
Requeued flit 4313
Requeued flit 4287
Requeued flit 4355
Requeued flit 4103
Requeued flit 4274
Requeued flit 4284
Requeued flit 4383
Requeued flit 4390
Requeued flit 4263
Requeued flit 4251
Requeued flit 4328
Requeued flit 3647
Requeued flit 4222
Requeued flit 4406
Requeued flit 4327
Requeued flit 4335
Requeued flit 4373
Requeued flit 4410
Requeued flit 4362
Requeued flit 4357
Requeued flit 4274
Requeued flit 4353
Requeued flit 4248
Requeued flit 4317
Requeued flit 4315
Requeued flit 4348
Requeued flit 4385
Requeued flit 4313
Requeued flit 4378
Requeued flit 4321
Requeued flit 3938
Requeued flit 4060
Requeued flit 4401
Requeued flit 4375
Requeued flit 4394
Requeued flit 4431
Requeued flit 4379
Requeued flit 4337
Requeued flit 3647
Requeued flit 4384
Requeued flit 4224
Requeued flit 4372
Requeued flit 4188
Requeued flit 4285
Requeued flit 4381
Requeued flit 4088
Requeued flit 4353
Requeued flit 4420
Requeued flit 4320
Requeued flit 4413
Requeued flit 4423
Requeued flit 4448
Requeued flit 4347
Requeued flit 4438
Requeued flit 3932
Requeued flit 4355
Requeued flit 4202
Requeued flit 4406
Requeued flit 4295
Requeued flit 4390
Requeued flit 4283
Requeued flit 4462
Requeued flit 4442
Requeued flit 4435
Requeued flit 4439
Requeued flit 4348
Requeued flit 4405
Requeued flit 4248
Requeued flit 4410
Requeued flit 4404
Requeued flit 4388
Requeued flit 3981
Requeued flit 4441
Requeued flit 4436
Requeued flit 4414
Requeued flit 4473
Requeued flit 4313
Requeued flit 4264
Requeued flit 4453
Requeued flit 4346
Requeued flit 4352
Requeued flit 4461
Requeued flit 4423
Requeued flit 4357
Requeued flit 4444
Requeued flit 4494
Requeued flit 4322
Requeued flit 4221
Requeued flit 4424
Requeued flit 4495
Requeued flit 4427
Requeued flit 4452
Requeued flit 4230
Requeued flit 4475
Requeued flit 4443
Requeued flit 4480
Requeued flit 4481
Requeued flit 4455
Requeued flit 4492
Requeued flit 4398
Requeued flit 4482
Requeued flit 4348
Requeued flit 4477
Requeued flit 4485
Requeued flit 4460
Requeued flit 4478
Requeued flit 4509
Requeued flit 4295
Requeued flit 4515
Requeued flit 4507
Requeued flit 4439
Requeued flit 4503
Requeued flit 4443
Requeued flit 4494
Requeued flit 4454
Requeued flit 4517
Requeued flit 4498
Requeued flit 4295
Requeued flit 4477
Requeued flit 4412
Requeued flit 4385
Requeued flit 4462
Requeued flit 4516
Requeued flit 4495
Requeued flit 4489
Requeued flit 4548
Requeued flit 4461
Requeued flit 4504
Requeued flit 4459
Requeued flit 4450
Requeued flit 4323
Requeued flit 4444
Requeued flit 4498
Requeued flit 4408
Requeued flit 4462
Requeued flit 4545
Requeued flit 4559
Requeued flit 4484
Requeued flit 4499
Requeued flit 4548
Requeued flit 4524
Requeued flit 4398
Requeued flit 4450
Requeued flit 4348
Requeued flit 4488
Requeued flit 4526
Requeued flit 4532
Requeued flit 4495
Requeued flit 4489
Requeued flit 4390
Requeued flit 4528
Requeued flit 4510
Requeued flit 4461
Requeued flit 4565
Requeued flit 4554
Requeued flit 4549
Requeued flit 4506
Requeued flit 4515
Requeued flit 4582
Requeued flit 4555
Requeued flit 4546
Requeued flit 4454
Requeued flit 4553
Requeued flit 4481
Requeued flit 4509
Requeued flit 4493
Requeued flit 4285
Requeued flit 4596
Requeued flit 4539
Requeued flit 4548
Requeued flit 4593
Requeued flit 4510
Requeued flit 4575
Requeued flit 4538
Requeued flit 4484
Requeued flit 4576
Requeued flit 4518
Requeued flit 4507
Requeued flit 4560
Requeued flit 4590
Requeued flit 4563
Requeued flit 4526
Requeued flit 4556
Requeued flit 4623
Requeued flit 4614
Requeued flit 4464
Requeued flit 4616
Requeued flit 4607
Requeued flit 4570
Requeued flit 4602
Requeued flit 4557
Requeued flit 4506
Requeued flit 4568
Requeued flit 4558
Requeued flit 4546
Requeued flit 4620
Requeued flit 4527
Requeued flit 4505
Requeued flit 4650
Requeued flit 4514
Requeued flit 4646
Requeued flit 4662
Requeued flit 4625
Requeued flit 4643
Requeued flit 4607
Requeued flit 4676
Requeued flit 4631
Requeued flit 4610
Requeued flit 4645
Requeued flit 4606
Requeued flit 4495
Requeued flit 4663
Requeued flit 4457
Requeued flit 4569
Requeued flit 4670
Requeued flit 4461
Requeued flit 4638
Requeued flit 4615
Requeued flit 4686
Requeued flit 4464
Requeued flit 4342
Requeued flit 4575
Requeued flit 4691
Requeued flit 4674
Requeued flit 4632
Requeued flit 4581
Requeued flit 4668
Requeued flit 4448
Requeued flit 4702
Requeued flit 4627
Requeued flit 4665
Requeued flit 4682
Requeued flit 4712
Requeued flit 4683
Requeued flit 4481
Requeued flit 4681
Requeued flit 4644
Requeued flit 4444
Requeued flit 4717
Requeued flit 4574
Requeued flit 4552
Requeued flit 4558
Requeued flit 4352
Requeued flit 4533
Requeued flit 4602
Requeued flit 4710
Requeued flit 4701
Requeued flit 4653
Requeued flit 4635
Requeued flit 4581
Requeued flit 4616
Requeued flit 4655
Requeued flit 4659
Requeued flit 4523
Requeued flit 4576
Requeued flit 4615
Requeued flit 4559
Requeued flit 4623
Requeued flit 4715
Requeued flit 4670
Requeued flit 4727
Requeued flit 4730
Requeued flit 4719
Requeued flit 4548
Requeued flit 4705
Requeued flit 4514
Requeued flit 4399
Requeued flit 4680
Requeued flit 4596
Requeued flit 4575
Requeued flit 4748
Requeued flit 4576
Requeued flit 4752
Requeued flit 4746
Requeued flit 4685
Requeued flit 4721
Requeued flit 4697
Requeued flit 4647
Requeued flit 4615
Requeued flit 4707
Requeued flit 4602
Requeued flit 4759
Requeued flit 4571
Requeued flit 4766
Requeued flit 4700
Requeued flit 4623
Requeued flit 4570
Requeued flit 4675
Requeued flit 4751
Requeued flit 4650
Requeued flit 4606
Requeued flit 4746
Requeued flit 4782
Requeued flit 4699
Requeued flit 4794
Requeued flit 4752
Requeued flit 4744
Requeued flit 4742
Requeued flit 4546
Requeued flit 4638
Requeued flit 4804
Requeued flit 4667
Requeued flit 4706
Requeued flit 4647
Requeued flit 4745
Requeued flit 4637
Requeued flit 4738
Requeued flit 4759
Requeued flit 4756
Requeued flit 4568
Requeued flit 4798
Requeued flit 4822
Requeued flit 4826
Requeued flit 4622
Requeued flit 4707
Requeued flit 4735
Requeued flit 4781
Requeued flit 4811
Requeued flit 4805
Requeued flit 4794
Requeued flit 4785
Requeued flit 4697
Requeued flit 4776
Requeued flit 4836
Requeued flit 4741
Requeued flit 4679
Requeued flit 4730
Requeued flit 4869
Requeued flit 4828
Requeued flit 4854
Requeued flit 4673
Requeued flit 4868
Requeued flit 4841
Requeued flit 4835
Requeued flit 4862
Requeued flit 4823
Requeued flit 4845
Requeued flit 4814
Requeued flit 4764
Requeued flit 4732
Requeued flit 4804
Requeued flit 4819
Requeued flit 4836
Requeued flit 4723
Requeued flit 4816
Requeued flit 4870
Requeued flit 4861
Requeued flit 4700
Requeued flit 4775
Requeued flit 4796
Requeued flit 4892
Requeued flit 4548
Requeued flit 4806
Requeued flit 4758
Requeued flit 4785
Requeued flit 4831
Requeued flit 4650
Requeued flit 4873
Requeued flit 4871
Requeued flit 4673
Requeued flit 4751
Requeued flit 4815
Requeued flit 4857
Requeued flit 4719
Requeued flit 4763
Requeued flit 4830
Requeued flit 4779
Requeued flit 4853
Requeued flit 4884
Requeued flit 4881
Requeued flit 4892
Requeued flit 4895
Requeued flit 4820
Requeued flit 4664
Requeued flit 4791
Requeued flit 4574
Requeued flit 4872
Requeued flit 4650
Requeued flit 4888
Requeued flit 4897
Requeued flit 4622
Requeued flit 4932
Requeued flit 4815
Requeued flit 4889
Requeued flit 4779
Requeued flit 4831
Requeued flit 4904
Requeued flit 4902
Requeued flit 4568
Requeued flit 4795
Requeued flit 4907
Requeued flit 4798
Requeued flit 4764
Requeued flit 4903
Requeued flit 4650
Requeued flit 4887
Requeued flit 4653
Requeued flit 4870
Requeued flit 4962
Requeued flit 4958
Requeued flit 4886
Requeued flit 4824
Requeued flit 4921
Requeued flit 4829
Requeued flit 4956
Requeued flit 4794
Requeued flit 4796
Requeued flit 4898
Requeued flit 4862
Requeued flit 4978
Requeued flit 4960
Requeued flit 4873
Requeued flit 4967
Requeued flit 4805
Requeued flit 4888
Requeued flit 4841
Requeued flit 4945
Requeued flit 4903
Requeued flit 4898
Requeued flit 4546
Requeued flit 4905
Requeued flit 4574
Requeued flit 4878
Requeued flit 4940
Requeued flit 4990
Requeued flit 4941
Requeued flit 4914
Requeued flit 4921
Requeued flit 4795
Requeued flit 4841
Requeued flit 4996
Requeued flit 4912
Requeued flit 4938
Requeued flit 4985
Requeued flit 4913
Requeued flit 4865
Requeued flit 4796
Requeued flit 4952
Requeued flit 5008
Requeued flit 4924
Requeued flit 4870
Requeued flit 5004
Requeued flit 4962
Requeued flit 4981
Requeued flit 4622
Requeued flit 4836
Requeued flit 4923
Requeued flit 4890
Requeued flit 4964
Requeued flit 5009
Requeued flit 5022
Requeued flit 5028
Requeued flit 5024
Requeued flit 4928
Requeued flit 5002
Requeued flit 4996
Requeued flit 4993
Requeued flit 4891
Requeued flit 4798
Requeued flit 4903
Requeued flit 4882
Requeued flit 4976
Requeued flit 4950
Requeued flit 4797
Requeued flit 4923
Requeued flit 4878
Requeued flit 4890
Requeued flit 4987
Requeued flit 5051
Requeued flit 5014
Requeued flit 4883
Requeued flit 4989
Requeued flit 4866
Requeued flit 5048
Requeued flit 4769
Requeued flit 4999
Requeued flit 4957
Requeued flit 5029
Requeued flit 5012
Requeued flit 4796
Requeued flit 5047
Requeued flit 4958
Requeued flit 5070
Requeued flit 5076
Requeued flit 4914
Requeued flit 4674
Requeued flit 4878
Requeued flit 5032
Requeued flit 4890
Requeued flit 5033
Requeued flit 4997
Requeued flit 4927
Requeued flit 4950
Requeued flit 4947
Requeued flit 4998
Requeued flit 4955
Requeued flit 5025
Requeued flit 5068
Requeued flit 5086
Requeued flit 5060
Requeued flit 5089
Requeued flit 5043
Requeued flit 4991
Requeued flit 5064
Requeued flit 4980
Requeued flit 4995
Requeued flit 5012
Requeued flit 4875
Requeued flit 4797
Requeued flit 5047
Requeued flit 4962
Requeued flit 5015
Requeued flit 5049
Requeued flit 5042
Requeued flit 4850
Requeued flit 5023
Requeued flit 4903
Requeued flit 4951
Requeued flit 5036
Requeued flit 4952
Requeued flit 5107
Requeued flit 4796
Requeued flit 5056
Requeued flit 5093
Requeued flit 5012
Requeued flit 5069
Requeued flit 4865
Requeued flit 4958
Requeued flit 4674
Requeued flit 5023
Requeued flit 5095
Requeued flit 5049
Requeued flit 5052
Requeued flit 5130
Requeued flit 5138
Requeued flit 5010
Requeued flit 5091
Requeued flit 5131
Requeued flit 4931
Requeued flit 5092
Requeued flit 5100
Requeued flit 5099
Requeued flit 5124
Requeued flit 5152
Requeued flit 5113
Requeued flit 5028
Requeued flit 4962
Requeued flit 5160
Requeued flit 5090
Requeued flit 5127
Requeued flit 5132
Requeued flit 5101
Requeued flit 4996
Requeued flit 5034
Requeued flit 5157
Requeued flit 5102
Requeued flit 5029
Requeued flit 5047
Requeued flit 5147
Requeued flit 5088
Requeued flit 5144
Requeued flit 5141
Requeued flit 4987
Requeued flit 5171
Requeued flit 5054
Requeued flit 5115
Requeued flit 5096
Requeued flit 5165
Requeued flit 5194
Requeued flit 5036
Requeued flit 4991
Requeued flit 5102
Requeued flit 5137
Requeued flit 5119
Requeued flit 5181
Requeued flit 5097
Requeued flit 5105
Requeued flit 5167
Requeued flit 5153
Requeued flit 5176
Requeued flit 5177
Requeued flit 5053
Requeued flit 4996
Requeued flit 5174
Requeued flit 5150
Requeued flit 5190
Requeued flit 5125
Requeued flit 5100
Requeued flit 5184
Requeued flit 5160
Requeued flit 5200
Requeued flit 5170
Requeued flit 5217
Requeued flit 5047
Requeued flit 5153
Requeued flit 5013
Requeued flit 5024
Requeued flit 5165
Requeued flit 5064
Requeued flit 5210
Requeued flit 5233
Requeued flit 5137
Requeued flit 5130
Requeued flit 5208
Requeued flit 5043
Requeued flit 4999
Requeued flit 5223
Requeued flit 5272
Requeued flit 5167
Requeued flit 5144
Requeued flit 5255
Requeued flit 5227
Requeued flit 5279
Requeued flit 5070
Requeued flit 5154
Requeued flit 5245
Requeued flit 5229
Requeued flit 5224
Requeued flit 5242
Requeued flit 5212
Requeued flit 5129
Requeued flit 5253
Requeued flit 5160
Requeued flit 5278
Requeued flit 5200
Requeued flit 5138
Requeued flit 4987
Requeued flit 5105
Requeued flit 5298
Requeued flit 5065
Requeued flit 5284
Requeued flit 4931
Requeued flit 5250
Requeued flit 5305
Requeued flit 5286
Requeued flit 5102
Requeued flit 5100
Requeued flit 5095
Requeued flit 5244
Requeued flit 5311
Requeued flit 5015
Requeued flit 5306
Requeued flit 5158
Requeued flit 5293
Requeued flit 5221
Requeued flit 5150
Requeued flit 5137
Requeued flit 5285
Requeued flit 5290
Requeued flit 5270
Requeued flit 5097
Requeued flit 5182
Requeued flit 5238
Requeued flit 5177
Requeued flit 4996
Requeued flit 5022
Requeued flit 5321
Requeued flit 5337
Requeued flit 5229
Requeued flit 5091
Requeued flit 5228
Requeued flit 5276
Requeued flit 5295
Requeued flit 5129
Requeued flit 5117
Requeued flit 5334
Requeued flit 5299
Requeued flit 5257
Requeued flit 5212
Requeued flit 5255
Requeued flit 5221
Requeued flit 5281
Requeued flit 5272
Requeued flit 5153
Requeued flit 5341
Requeued flit 5178
Requeued flit 5287
Requeued flit 5267
Requeued flit 5259
Requeued flit 5318
Requeued flit 5320
Requeued flit 5157
Requeued flit 5332
Requeued flit 5257
Requeued flit 5367
Requeued flit 5355
Requeued flit 5356
Requeued flit 5164
Requeued flit 5317
Requeued flit 5203
Requeued flit 5339
Requeued flit 5353
Requeued flit 5208
Requeued flit 5315
Requeued flit 5361
Requeued flit 5385
Requeued flit 5351
Requeued flit 5332
Requeued flit 5109
Requeued flit 5387
Requeued flit 5305
Requeued flit 5236
Requeued flit 5346
Requeued flit 5340
Requeued flit 5350
Requeued flit 5281
Requeued flit 5369
Requeued flit 5256
Requeued flit 5110
Requeued flit 5331
Requeued flit 5392
Requeued flit 5153
Requeued flit 5391
Requeued flit 5366
Requeued flit 5381
Requeued flit 5347
Requeued flit 5065
Requeued flit 5398
Requeued flit 5413
Requeued flit 5238
Requeued flit 5357
Requeued flit 5387
Requeued flit 5402
Requeued flit 5276
Requeued flit 5365
Requeued flit 5309
Requeued flit 5376
Requeued flit 5022
Requeued flit 5338
Requeued flit 5413
Requeued flit 5424
Requeued flit 5446
Requeued flit 5426
Requeued flit 5395
Requeued flit 5369
Requeued flit 5361
Requeued flit 5377
Requeued flit 5015
Requeued flit 5419
Requeued flit 5153
Requeued flit 5464
Requeued flit 5435
Requeued flit 5410
Requeued flit 5352
Requeued flit 5459
Requeued flit 5387
Requeued flit 5455
Requeued flit 5449
Requeued flit 5331
Requeued flit 5377
Requeued flit 5361
Requeued flit 5318
Requeued flit 5413
Requeued flit 5418
Requeued flit 5467
Requeued flit 5453
Requeued flit 5436
Requeued flit 5482
Requeued flit 5402
Requeued flit 5200
Requeued flit 5448
Requeued flit 5278
Requeued flit 5347
Requeued flit 5398
Requeued flit 5257
Requeued flit 5433
Requeued flit 5389
Requeued flit 5443
Requeued flit 5426
Requeued flit 5446
Requeued flit 5440
Requeued flit 5484
Requeued flit 5341
Requeued flit 5438
Requeued flit 5421
Requeued flit 5423
Requeued flit 5414
Requeued flit 5468
Requeued flit 5411
Requeued flit 5462
Requeued flit 5436
Requeued flit 5276
Requeued flit 5315
Requeued flit 5507
Requeued flit 5474
Requeued flit 5511
Requeued flit 5492
Requeued flit 5494
Requeued flit 5453
Requeued flit 5256
Requeued flit 5540
Requeued flit 5477
Requeued flit 5454
Requeued flit 5527
Requeued flit 5384
Requeued flit 5430
Requeued flit 5546
Requeued flit 5519
Requeued flit 5383
Requeued flit 5483
Requeued flit 5095
Requeued flit 5545
Requeued flit 5516
Requeued flit 5470
Requeued flit 5459
Requeued flit 5530
Requeued flit 5500
Requeued flit 5425
Requeued flit 5463
Requeued flit 5494
Requeued flit 5352
Requeued flit 5276
Requeued flit 5464
Requeued flit 5503
Requeued flit 5462
Requeued flit 5511
Requeued flit 5470
Requeued flit 5453
Requeued flit 5438
Requeued flit 5474
Requeued flit 5436
Requeued flit 5571
Requeued flit 5483
Requeued flit 5559
Requeued flit 5560
Requeued flit 5568
Requeued flit 5583
Requeued flit 5598
Requeued flit 5573
Requeued flit 5383
Requeued flit 5558
Requeued flit 5556
Requeued flit 5562
Requeued flit 5605
Requeued flit 5486
Requeued flit 5426
Requeued flit 5443
Requeued flit 5303
Requeued flit 5579
Requeued flit 5554
Requeued flit 5559
Requeued flit 5377
Requeued flit 5603
Requeued flit 5352
Requeued flit 5628
Requeued flit 5462
Requeued flit 5620
Requeued flit 5464
Requeued flit 5578
Requeued flit 5541
Requeued flit 5478
Requeued flit 5604
Requeued flit 5602
Requeued flit 5482
Requeued flit 5637
Requeued flit 5636
Requeued flit 5640
Requeued flit 5610
Requeued flit 5581
Requeued flit 5628
Requeued flit 5545
Requeued flit 5563
Requeued flit 5573
Requeued flit 5623
Requeued flit 5492
Requeued flit 5592
Requeued flit 5486
Requeued flit 5584
Requeued flit 5470
Requeued flit 5570
Requeued flit 5609
Requeued flit 5602
Requeued flit 5648
Requeued flit 5596
Requeued flit 5661
Requeued flit 5425
Requeued flit 5618
Requeued flit 5645
Requeued flit 5590
Requeued flit 5628
Requeued flit 5647
Requeued flit 5663
Requeued flit 5571
Requeued flit 5554
Requeued flit 5678
Requeued flit 5654
Requeued flit 5659
Requeued flit 5656
Requeued flit 5483
Requeued flit 5653
Requeued flit 5608
Requeued flit 5588
Requeued flit 5492
Requeued flit 5679
Requeued flit 5539
Requeued flit 5671
Requeued flit 5643
Requeued flit 5478
Requeued flit 5596
Requeued flit 5425
Requeued flit 5356
Requeued flit 5482
Requeued flit 5703
Requeued flit 5315
Requeued flit 5586
Requeued flit 5704
Requeued flit 5662
Requeued flit 5664
Requeued flit 5693
Requeued flit 5661
Requeued flit 5677
Requeued flit 5665
Requeued flit 5678
Requeued flit 5685
Requeued flit 5672
Requeued flit 5700
Requeued flit 5658
Requeued flit 5653
Requeued flit 5663
Requeued flit 5615
Requeued flit 5526
Requeued flit 5640
Requeued flit 5683
Requeued flit 5701
Requeued flit 5673
Requeued flit 5684
Requeued flit 5433
Requeued flit 5708
Requeued flit 5699
Requeued flit 5652
Requeued flit 5629
Requeued flit 5723
Requeued flit 5577
Requeued flit 5754
Requeued flit 5704
Requeued flit 5686
Requeued flit 5617
Requeued flit 5660
Requeued flit 5725
Requeued flit 5672
Requeued flit 5667
Requeued flit 5753
Requeued flit 5718
Requeued flit 5687
Requeued flit 5751
Requeued flit 5315
Requeued flit 5433
Requeued flit 5690
Requeued flit 5671
Requeued flit 5683
Requeued flit 5571
Requeued flit 5679
Requeued flit 5742
Requeued flit 5688
Requeued flit 5654
Requeued flit 5780
Requeued flit 5640
Requeued flit 5726
Requeued flit 5765
Requeued flit 5699
Requeued flit 5611
Requeued flit 5706
Requeued flit 5727
Requeued flit 5673
Requeued flit 5753
Requeued flit 5708
Requeued flit 5643
Requeued flit 5702
Requeued flit 5769
Requeued flit 5705
Requeued flit 5784
Requeued flit 5644
Requeued flit 5718
Requeued flit 5733
Requeued flit 5804
Requeued flit 5654
Requeued flit 5773
Requeued flit 5749
Requeued flit 5657
Requeued flit 5743
Requeued flit 5759
Requeued flit 5708
Requeued flit 5691
Requeued flit 5644
Requeued flit 5765
Requeued flit 5796
Requeued flit 5770
Requeued flit 5669
Requeued flit 5808
Requeued flit 5769
Requeued flit 5821
Requeued flit 5715
Requeued flit 5605
Requeued flit 5716
Requeued flit 5781
Requeued flit 5831
Requeued flit 5740
Requeued flit 5486
Requeued flit 5679
Requeued flit 5842
Requeued flit 5810
Requeued flit 5771
Requeued flit 5315
Requeued flit 5796
Requeued flit 5854
Requeued flit 5826
Requeued flit 5784
Requeued flit 5691
Requeued flit 5853
Requeued flit 5852
Requeued flit 5820
Requeued flit 5785
Requeued flit 5710
Requeued flit 5813
Requeued flit 5839
Requeued flit 5827
Requeued flit 5835
Requeued flit 5833
Requeued flit 5807
Requeued flit 5643
Requeued flit 5652
Requeued flit 5798
Requeued flit 5836
Requeued flit 5858
Requeued flit 5757
Requeued flit 5874
Requeued flit 5795
Requeued flit 5486
Requeued flit 5832
Requeued flit 5855
Requeued flit 5885
Requeued flit 5762
Requeued flit 5679
Requeued flit 5873
Requeued flit 5852
Requeued flit 5821
Requeued flit 5844
Requeued flit 5775
Requeued flit 5828
Requeued flit 5764
Requeued flit 5840
Requeued flit 5888
Requeued flit 5666
Requeued flit 5833
Requeued flit 5829
Requeued flit 5827
Requeued flit 5798
Requeued flit 5770
Requeued flit 5903
Requeued flit 5701
Requeued flit 5791
Requeued flit 5881
Requeued flit 5898
Requeued flit 5899
Requeued flit 5863
Requeued flit 5702
Requeued flit 5618
Requeued flit 5879
Requeued flit 5877
Requeued flit 5486
Requeued flit 5814
Requeued flit 5849
Requeued flit 5827
Requeued flit 5869
Requeued flit 5833
Requeued flit 5893
Requeued flit 5759
Requeued flit 5643
Requeued flit 5855
Requeued flit 5822
Requeued flit 5806
Requeued flit 5846
Requeued flit 5919
Requeued flit 5943
Requeued flit 5913
Requeued flit 5883
Requeued flit 5908
Requeued flit 5845
Requeued flit 5911
Requeued flit 5953
Requeued flit 5858
Requeued flit 5780
Requeued flit 5926
Requeued flit 5955
Requeued flit 5912
Requeued flit 5902
Requeued flit 5828
Requeued flit 5963
Requeued flit 5915
Requeued flit 5910
Requeued flit 5865
Requeued flit 5900
Requeued flit 5783
Requeued flit 5764
Requeued flit 5954
Requeued flit 5933
Requeued flit 5899
Requeued flit 5971
Requeued flit 5970
Requeued flit 5825
Requeued flit 5890
Requeued flit 5962
Requeued flit 5992
Requeued flit 5967
Requeued flit 5951
Requeued flit 5972
Requeued flit 5924
Requeued flit 5911
Requeued flit 5901
Requeued flit 5995
Requeued flit 5855
Requeued flit 5961
Requeued flit 5910
Requeued flit 5982
Requeued flit 5928
Requeued flit 5990
Requeued flit 5925
Requeued flit 5953
Requeued flit 5948
Requeued flit 6021
Requeued flit 6015
Requeued flit 5806
Requeued flit 5992
Requeued flit 5978
Requeued flit 5946
Requeued flit 5906
Requeued flit 6013
Requeued flit 6014
Requeued flit 5994
Requeued flit 5899
Requeued flit 5958
Requeued flit 5865
Requeued flit 5888
Requeued flit 5951
Requeued flit 5779
Requeued flit 6026
Requeued flit 6021
Requeued flit 5939
Requeued flit 5921
Requeued flit 5954
Requeued flit 6024
Requeued flit 6000
Requeued flit 5960
Requeued flit 6037
Requeued flit 5958
Requeued flit 6013
Requeued flit 6016
Requeued flit 5999
Requeued flit 6047
Requeued flit 5936
Requeued flit 6002
Requeued flit 6018
Requeued flit 6010
Requeued flit 6008
Requeued flit 6060
Requeued flit 5905
Requeued flit 5956
Requeued flit 5910
Requeued flit 6059
Requeued flit 5913
Requeued flit 5900
Requeued flit 5868
Requeued flit 5958
Requeued flit 5888
Requeued flit 6044
Requeued flit 6045
Requeued flit 5940
Requeued flit 5978
Requeued flit 5906
Requeued flit 6062
Requeued flit 6072
Requeued flit 6088
Requeued flit 5879
Requeued flit 6061
Requeued flit 5975
Requeued flit 6019
Requeued flit 5910
Requeued flit 6100
Requeued flit 5850
Requeued flit 6051
Requeued flit 6047
Requeued flit 6095
Requeued flit 6030
Requeued flit 6031
Requeued flit 6087
Requeued flit 6089
Requeued flit 6049
Requeued flit 6040
Requeued flit 6126
Requeued flit 6088
Requeued flit 6029
Requeued flit 6130
Requeued flit 6073
Requeued flit 5779
Requeued flit 5900
Requeued flit 5957
Requeued flit 5950
Requeued flit 6133
Requeued flit 5933
Requeued flit 5994
Requeued flit 5913
Requeued flit 6025
Requeued flit 6043
Requeued flit 6112
Requeued flit 6064
Requeued flit 6072
Requeued flit 5922
Requeued flit 6098
Requeued flit 6026
Requeued flit 6012
Requeued flit 5937
Requeued flit 6070
Requeued flit 6006
Requeued flit 6041
[...]
Requeued flit 191484
Requeued flit 191508
Requeued flit 191546
Requeued flit 191483
Requeued flit 191534
Requeued flit 191502
Requeued flit 191544
Requeued flit 191488
Requeued flit 191362
Requeued flit 191436
Requeued flit 191559
Requeued flit 191498
Requeued flit 191487
Requeued flit 191553
Requeued flit 191565
Requeued flit 191309
Requeued flit 191594
Requeued flit 191581
Requeued flit 191518
Requeued flit 191397
Requeued flit 191569
Requeued flit 191451
Requeued flit 191592
Requeued flit 191537
Requeued flit 191548
Requeued flit 191357
Requeued flit 191268
Requeued flit 191598
Requeued flit 191524
Requeued flit 191433
Requeued flit 191562
Requeued flit 191523
Requeued flit 191551
Requeued flit 191589
Requeued flit 191577
Requeued flit 191568
Requeued flit 191552
Requeued flit 191332
Requeued flit 191608
Requeued flit 191571
Requeued flit 191626
Requeued flit 191583
Requeued flit 191567
Requeued flit 191465
Requeued flit 191586
Requeued flit 191491
Requeued flit 191600
Requeued flit 191513
Requeued flit 191598
Requeued flit 191498
Requeued flit 191489
Requeued flit 191492
Requeued flit 191603
Requeued flit 191282
Requeued flit 191503
Requeued flit 191566
Requeued flit 191542
Requeued flit 191649
Requeued flit 191529
Requeued flit 191610
Requeued flit 191639
Requeued flit 191655
Requeued flit 191593
Requeued flit 191591
Requeued flit 191636
Requeued flit 191574
Requeued flit 191653
Requeued flit 191188
Requeued flit 191633
Requeued flit 191520
Requeued flit 191646
Requeued flit 191232
Requeued flit 191562
Requeued flit 191332
Requeued flit 191634
Requeued flit 191571
Requeued flit 191498
Requeued flit 191667
Requeued flit 191545
Requeued flit 191561
Requeued flit 191587
Requeued flit 191635
Requeued flit 191644
Requeued flit 191620
Requeued flit 191677
Requeued flit 191679
Requeued flit 191649
Requeued flit 191617
Requeued flit 191509
Requeued flit 191678
Requeued flit 191665
Requeued flit 191681
Requeued flit 191692
Requeued flit 191596
Requeued flit 191702
Requeued flit 191591
Requeued flit 191711
Requeued flit 191704
Requeued flit 191690
Requeued flit 191650
Requeued flit 191693
Requeued flit 191656
Requeued flit 191489
Requeued flit 191685
Requeued flit 191648
Requeued flit 191548
Requeued flit 191682
Requeued flit 191596
Requeued flit 191706
Requeued flit 191587
Requeued flit 191597
Requeued flit 191729
Requeued flit 191718
Requeued flit 191679
Requeued flit 191701
Requeued flit 191642
Requeued flit 191703
Requeued flit 191545
Requeued flit 191709
Requeued flit 191735
Requeued flit 191631
Requeued flit 191592
Requeued flit 191338
Requeued flit 191644
Requeued flit 191756
Requeued flit 191629
Requeued flit 191654
Requeued flit 191769
Requeued flit 191744
Requeued flit 191731
Requeued flit 191552
Requeued flit 191548
Requeued flit 191700
Requeued flit 191581
Requeued flit 191342
Requeued flit 191765
Requeued flit 191778
Requeued flit 191771
Requeued flit 191732
Requeued flit 191668
Requeued flit 191678
Requeued flit 191728
Requeued flit 191651
Requeued flit 191751
Requeued flit 191654
Requeued flit 191583
Requeued flit 191741
Requeued flit 191644
Requeued flit 191698
Requeued flit 191706
Requeued flit 191622
Requeued flit 191725
Requeued flit 191423
Requeued flit 191777
Requeued flit 191778
Requeued flit 191689
Requeued flit 191690
Requeued flit 191783
Requeued flit 191781
Requeued flit 191806
Requeued flit 191458
Requeued flit 191561
Requeued flit 191810
Requeued flit 191789
Requeued flit 191667
Requeued flit 191827
Requeued flit 191679
Requeued flit 191431
Requeued flit 191808
Requeued flit 191762
Requeued flit 191772
Requeued flit 191832
Requeued flit 191713
Requeued flit 191720
Requeued flit 191813
Requeued flit 191818
Requeued flit 191844
Requeued flit 191814
Requeued flit 191755
Requeued flit 191668
Requeued flit 191651
Requeued flit 191779
Requeued flit 191793
Requeued flit 191777
Requeued flit 191831
Requeued flit 191816
Requeued flit 191790
Requeued flit 191778
Requeued flit 191811
Requeued flit 191867
Requeued flit 191720
Requeued flit 191837
Requeued flit 191826
Requeued flit 191833
Requeued flit 191870
Requeued flit 191810
Requeued flit 191858
Requeued flit 191831
Requeued flit 191759
Class 0:
Packet latency average = 35.8376
	minimum = 5
	maximum = 407
Network latency average = 35.8376
	minimum = 5
	maximum = 407
Slowest packet = 157922
Flit latency average = 35.8641
	minimum = 5
	maximum = 407
Slowest flit = 157922
Fragmentation average = 0
	minimum = 0
	maximum = 0
Injected packet rate average = 0.0499115
	minimum = 0.0470667 (at node 43)
	maximum = 0.0527 (at node 22)
Accepted packet rate average = 0.0499177
	minimum = 0.0471 (at node 37)
	maximum = 0.0528333 (at node 28)
Injected flit rate average = 0.0499115
	minimum = 0.0470667 (at node 43)
	maximum = 0.0527 (at node 22)
Accepted flit rate average= 0.0499177
	minimum = 0.0471 (at node 37)
	maximum = 0.0528333 (at node 28)
Injected packet length average = 1
Accepted packet length average = 1
Total in-flight flits = 107 (107 measured)
latency change    = 0.00103306
throughput change = 0.000386052
Draining all recorded packets ...
in flight = 107
Requeued flit 191431
in flight = 105
Requeued flit 191776
Requeued flit 191791
in flight = 101
Requeued flit 191651
in flight = 99
in flight = 97
Requeued flit 191891
Requeued flit 191834
in flight = 94
Requeued flit 191809
Requeued flit 191876
in flight = 92
Requeued flit 191825
in flight = 90
Requeued flit 191797
Requeued flit 191796
Requeued flit 191897
in flight = 88
Requeued flit 191859
Requeued flit 191798
in flight = 87
Requeued flit 191904
Requeued flit 191877
in flight = 83
Requeued flit 191840
Requeued flit 191689
Requeued flit 191835
Requeued flit 191883
in flight = 80
Requeued flit 191860
Requeued flit 191845
Requeued flit 191812
Requeued flit 191642
Requeued flit 191907
Requeued flit 191898
in flight = 79
in flight = 77
Requeued flit 191703
Requeued flit 191875
in flight = 76
Requeued flit 191772
in flight = 75
Requeued flit 191889
Requeued flit 191729
Requeued flit 191793
in flight = 73
Requeued flit 191799
Requeued flit 191926
in flight = 71
Requeued flit 191846
Requeued flit 191599
in flight = 68
Requeued flit 191775
in flight = 66
Requeued flit 191933
Requeued flit 191922
Requeued flit 191896
Requeued flit 191901
in flight = 65
Requeued flit 191864
in flight = 62
Requeued flit 191908
Requeued flit 191871
Requeued flit 191674
Requeued flit 191915
in flight = 59
Requeued flit 191629
Requeued flit 191797
Requeued flit 191897
in flight = 56
Requeued flit 191909
in flight = 55
Requeued flit 191907
in flight = 52
Requeued flit 191793
in flight = 52
Requeued flit 191875
Requeued flit 191919
in flight = 52
Requeued flit 191902
in flight = 49
Requeued flit 191928
in flight = 47
Requeued flit 191931
Requeued flit 191882
Requeued flit 191949
in flight = 46
60030 | node60 | Enqueuing flit 192022 (packet 192022) at time 60030.
60030 | traffic_manager | Finding output VC for flit 192022:
60030 | traffic_manager |   Selected output VC 0.
60030 | network_0/router_7_4 | Adding VC range [0,1] at output port 3 for flit 192022 (input port 4, destination 44).
60030 | node60 | Generating lookahead routing info for flit 192022.
60030 | node60 | Injecting flit 192022 into subnet 0 at time 60030 with priority 0.
Requeued flit 191953
Requeued flit 191871
Requeued flit 191951
in flight = 45
60031 | network_0/network_0_fchan_ingress60 | Beginning channel traversal for flit 192022 with delay 1.
Requeued flit 191954
Requeued flit 191599
60031 | network_0/network_0_fchan_ingress60 | Completed channel traversal for flit 192022.
in flight = 44
60032 | network_0/router_7_4 | Received flit 192022 from channel at input 4.
Requeued flit 191972
Requeued flit 191913
Requeued flit 191922
Requeued flit 191920
Requeued flit 191899
Requeued flit 191958
Requeued flit 191898
60032 | network_0/router_7_4 | Adding flit 192022 to VC 0 at input 4 (state: idle, empty).
60032 | network_0/router_7_4 | Using precomputed lookahead routing information for VC 0 at input 4 (front: 192022).
60032 | network_0/router_7_4/buf_4/vc_0 | Changing state from idle to vc_alloc.
60032 | network_0/router_7_4 | Beginning VC allocation for VC 0 at input 4 (front: 192022).
60032 | network_0/router_7_4 |   Requesting VC 0 at output 3 (in_pri: 0, out_pri: 0).
60032 | network_0/router_7_4 |   Requesting VC 1 at output 3 (in_pri: 0, out_pri: 0).
60032 | network_0/router_7_4/vc_allocator | Input requests = [ 8 -> [ 6@0 7@0 ]  ], output requests = [ 6 -> [ 8@0 ]  7 -> [ 8@0 ]  ].
60032 | network_0/router_7_4/vc_allocator | Input grants = [ 8 -> 6  ], output grants = [ 6 -> 8  ].
60032 | network_0/router_7_4 | Assigning VC 0 at output 3 to VC 0 at input 4.
60032 | network_0/router_7_4 | Completed VC allocation for VC 0 at input 4 (front: 192022).
60032 | network_0/router_7_4 |   Acquiring assigned VC 0 at output 3.
60032 | network_0/router_7_4/buf_4/vc_0 | Changing state from vc_alloc to active.
60032 | network_0/router_7_4 | Beginning switch allocation for VC 0 at input 4 (front: 192022).
60032 | network_0/router_7_4 |   Requesting output 3.0 (non-spec, pri: 0).
60032 | network_0/router_7_4/sw_allocator | Input requests = [ 4 -> [ 3@0 ]  ], output requests = [ 3 -> [ 4@0 ]  ].
60032 | network_0/router_7_4/sw_allocator | Input grants = [ 4 -> 3  ], output grants = [ 3 -> 4  ].
60032 | network_0/router_7_4 | Assigning output 3.0 to VC 0 at input 4.0.
60032 | network_0/router_7_4 | Completed switch allocation for VC 0 at input 4 (front: 192022).
60032 | network_0/router_7_4 |   Scheduling switch connection from input 4.0 to output 3.0.
60032 | network_0/router_7_4 | Updating lookahead routing information for flit 192022.
60032 | network_0/router_6_4 | Adding VC range [0,1] at output port 3 for flit 192022 (input port 2, destination 44).
in flight = 44
60033 | network_0/router_7_4 | Beginning crossbar traversal for flit 192022 from input 4.0 to output 3.0.
60033 | network_0/router_7_4 | Completed crossbar traversal for flit 192022 from input 4.0 to output 3.0.
60033 | network_0/router_7_4 | Buffering flit 192022 at output 3.
Requeued flit 191957
60033 | network_0/router_7_4 | Sending flit 192022 to channel at output 3.
in flight = 41
60034 | network_0/network_0_fchan_243 | Beginning channel traversal for flit 192022 with delay 1.
Requeued flit 191945
60034 | network_0/network_0_fchan_243 | Completed channel traversal for flit 192022.
in flight = 39
60035 | network_0/router_6_4 | Received flit 192022 from channel at input 2.
Requeued flit 191995
in flight = 37
Requeued flit 191816
Requeued flit 191851
Requeued flit 191891
Requeued flit 191892
Requeued flit 191968
in flight = 36
Requeued flit 191780
in flight = 33
Requeued flit 191798
Requeued flit 191791
in flight = 32
Requeued flit 191988
Requeued flit 192015
in flight = 31
Requeued flit 191852
Requeued flit 191977
Requeued flit 191921
Requeued flit 191772
in flight = 30
Requeued flit 191831
Requeued flit 191928
in flight = 29
Requeued flit 191898
Requeued flit 191951
in flight = 29
Requeued flit 191708
Requeued flit 191973
in flight = 29
Requeued flit 191791
Requeued flit 191993
in flight = 26
Requeued flit 191991
Requeued flit 191674
Requeued flit 191894
Requeued flit 191904
Requeued flit 191929
in flight = 26
Requeued flit 192026
Requeued flit 191948
in flight = 26
Requeued flit 191953
Requeued flit 191825
Requeued flit 192039
Requeued flit 192015
in flight = 25
Requeued flit 191956
in flight = 24
Requeued flit 192038
Requeued flit 192017
Requeued flit 191978
in flight = 23
Requeued flit 191966
Requeued flit 191983
Requeued flit 192002
Requeued flit 192007
Requeued flit 191893
Requeued flit 192032
in flight = 21
Requeued flit 191970
Requeued flit 191902
in flight = 21
Requeued flit 191967
Requeued flit 191944
Requeued flit 191987
in flight = 19
Requeued flit 191973
Requeued flit 192028
in flight = 18
Requeued flit 192003
Requeued flit 191949
in flight = 18
Requeued flit 191731
in flight = 17
Requeued flit 191776
Requeued flit 192049
Requeued flit 191978
Requeued flit 191931
Requeued flit 191824
in flight = 16
Requeued flit 191797
Requeued flit 192027
Requeued flit 192008
in flight = 16
Requeued flit 192023
Requeued flit 191992
in flight = 16
Requeued flit 192035
Requeued flit 191967
Requeued flit 191997
Requeued flit 192064
in flight = 16
in flight = 14
in flight = 13
Requeued flit 192025
Requeued flit 192085
Requeued flit 191983
in flight = 13
Requeued flit 191787
Requeued flit 192031
in flight = 13
Requeued flit 192010
Requeued flit 192097
in flight = 13
Requeued flit 192050
Requeued flit 192032
in flight = 11
Requeued flit 191898
Requeued flit 191985
in flight = 11
Requeued flit 191946
in flight = 11
Requeued flit 192065
in flight = 11
Requeued flit 192046
Requeued flit 191997
in flight = 11
Requeued flit 192092
Requeued flit 192093
Requeued flit 192026
Requeued flit 192055
in flight = 11
Requeued flit 191902
in flight = 10
Requeued flit 191887
Requeued flit 192079
Requeued flit 192088
in flight = 10
Requeued flit 192084
Requeued flit 192030
Requeued flit 192057
Requeued flit 191967
Requeued flit 191831
Requeued flit 192039
Requeued flit 192022
60073 | network_0/router_7_4 | Sending flit 192022 to channel at output 3.
in flight = 10
60074 | network_0/network_0_fchan_243 | Beginning channel traversal for flit 192022 with delay 1.
Requeued flit 191951
Requeued flit 192027
60074 | network_0/network_0_fchan_243 | Completed channel traversal for flit 192022.
in flight = 10
60075 | network_0/router_6_4 | Received flit 192022 from channel at input 2.
in flight = 10
Requeued flit 191963
Requeued flit 191772
Requeued flit 192070
Requeued flit 192090
Requeued flit 192131
in flight = 10
Requeued flit 192138
in flight = 9
Requeued flit 192135
Requeued flit 191651
Requeued flit 191898
Requeued flit 191791
in flight = 8
Requeued flit 192145
Requeued flit 192034
Requeued flit 191973
Requeued flit 192047
in flight = 7
Requeued flit 192121
Requeued flit 192017
in flight = 7
Requeued flit 192041
in flight = 6
Requeued flit 192153
Requeued flit 192125
Requeued flit 192073
in flight = 6
Requeued flit 192093
in flight = 5
Requeued flit 191833
in flight = 5
Requeued flit 192026
Requeued flit 191674
in flight = 5
in flight = 5
in flight = 4
Requeued flit 192042
Requeued flit 192174
Requeued flit 191985
Requeued flit 192076
Requeued flit 192041
in flight = 4
Requeued flit 192139
in flight = 2
Requeued flit 191967
Requeued flit 192159
in flight = 2
Requeued flit 192175
Requeued flit 192167
Requeued flit 192170
in flight = 2
Requeued flit 192141
Requeued flit 192192
in flight = 2
Requeued flit 192194
Requeued flit 191982
in flight = 2
Requeued flit 192184
Requeued flit 192122
Requeued flit 192026
Requeued flit 192038
in flight = 2
Requeued flit 191998
in flight = 2
Requeued flit 191983
Requeued flit 192110
Requeued flit 192140
in flight = 1
Requeued flit 192075
Requeued flit 192036
Requeued flit 192157
in flight = 1
Requeued flit 192176
Requeued flit 192057
Requeued flit 192210
in flight = 1
Requeued flit 192177
Requeued flit 192137
in flight = 1
Requeued flit 192092
Requeued flit 191967
Requeued flit 192151
in flight = 1
Requeued flit 192180
Requeued flit 192189
in flight = 1
Requeued flit 192195
Requeued flit 192139
in flight = 1
Requeued flit 192206
in flight = 1
Requeued flit 192169
in flight = 1
Requeued flit 192165
in flight = 1
Requeued flit 192146
Requeued flit 192153
Requeued flit 192227
in flight = 1
Requeued flit 191431
Requeued flit 192117
in flight = 1
Requeued flit 192179
Requeued flit 192200
Requeued flit 192197
Requeued flit 192144
Requeued flit 192214
in flight = 1
Requeued flit 192131
in flight = 1
Requeued flit 192194
Requeued flit 192220
Requeued flit 192174
in flight = 1
Requeued flit 192159
Requeued flit 192238
in flight = 1
Requeued flit 192216
Requeued flit 192150
in flight = 1
Requeued flit 192244
Requeued flit 192182
in flight = 1
Requeued flit 192233
Requeued flit 192240
Requeued flit 192128
in flight = 1
Requeued flit 192266
Requeued flit 192052
in flight = 1
Requeued flit 192260
Requeued flit 192164
Requeued flit 192203
Requeued flit 192139
in flight = 1
Requeued flit 192268
in flight = 1
Requeued flit 192188
Requeued flit 192206
in flight = 1
Requeued flit 192271
Requeued flit 192100
in flight = 1
Requeued flit 192219
Requeued flit 192158
Requeued flit 192227
Requeued flit 192181
in flight = 1
Requeued flit 192289
Requeued flit 192166
Requeued flit 192270
Requeued flit 192236
Requeued flit 192223
Requeued flit 192277
in flight = 1
Requeued flit 192283
Requeued flit 192252
Requeued flit 192269
Requeued flit 192112
in flight = 1
Requeued flit 192208
Requeued flit 191967
Requeued flit 192254
in flight = 1
Requeued flit 192212
Requeued flit 192305
Requeued flit 192310
in flight = 1
Requeued flit 192076
in flight = 1
Requeued flit 192264
Requeued flit 192168
Requeued flit 192241
in flight = 1
Requeued flit 192132
in flight = 1
Requeued flit 192165
Requeued flit 192210
Requeued flit 192205
Requeued flit 192223
Requeued flit 192206
Requeued flit 192308
in flight = 1
Requeued flit 192309
in flight = 1
Requeued flit 192298
Requeued flit 192302
Requeued flit 192216
Draining remaining packets ...
Requeued flit 192259
Requeued flit 192283
Requeued flit 192279
Requeued flit 192179
Requeued flit 192200
Requeued flit 192161
Requeued flit 192253
Requeued flit 192297
Requeued flit 192167
Requeued flit 192144
Requeued flit 192252
Requeued flit 192334
Requeued flit 192274
Requeued flit 192323
Requeued flit 192345
Requeued flit 192192
Requeued flit 192339
Requeued flit 192292
Requeued flit 192346
Requeued flit 192307
Requeued flit 192237
Requeued flit 192239
Requeued flit 192328
Requeued flit 192256
Requeued flit 192109
Requeued flit 192288
Requeued flit 192337
Requeued flit 192334
Requeued flit 192332
Requeued flit 192277
Requeued flit 192250
Requeued flit 192338
Requeued flit 192263
Requeued flit 192221
Requeued flit 192182
Requeued flit 192255
Requeued flit 192282
Requeued flit 192235
Requeued flit 192236
Requeued flit 192322
Requeued flit 192307
Requeued flit 192262
Requeued flit 192317
Requeued flit 192353
Requeued flit 192330
Requeued flit 192337
Requeued flit 192297
Requeued flit 192214
Requeued flit 192131
Requeued flit 192226
Requeued flit 192236
Requeued flit 192197
Requeued flit 192052
Class 0:
Remaining flits: 192022 192208 192212 192235 192237 192239 192242 192250 192258 192292 [...] (25 flits)
Measured flits: (0 flits)
WARNING: Possible network deadlock.
Class 0:
Remaining flits: 192022 192208 192212 192235 192237 192239 192242 192250 192258 192292 [...] (25 flits)
Measured flits: (0 flits)
WARNING: Possible network deadlock.
Class 0:
Remaining flits: 192022 192208 192212 192235 192237 192239 192242 192250 192258 192292 [...] (25 flits)
Measured flits: (0 flits)
WARNING: Possible network deadlock.
Class 0:
Remaining flits: 192022 192208 192212 192235 192237 192239 192242 192250 192258 192292 [...] (25 flits)
Measured flits: (0 flits)
Time taken is 61131 cycles
====== Overall Traffic Statistics ======
====== Traffic class 0 ======
Packet latency average = 35.8617 (1 samples)
	minimum = 5 (1 samples)
	maximum = 407 (1 samples)
Network latency average = 35.8617 (1 samples)
	minimum = 5 (1 samples)
	maximum = 407 (1 samples)
Flit latency average = 35.8714 (1 samples)
	minimum = 5 (1 samples)
	maximum = 407 (1 samples)
Fragmentation average = 0 (1 samples)
	minimum = 0 (1 samples)
	maximum = 0 (1 samples)
Injected packet rate average = 0.0499115 (1 samples)
	minimum = 0.0470667 (1 samples)
	maximum = 0.0527 (1 samples)
Accepted packet rate average = 0.0499177 (1 samples)
	minimum = 0.0471 (1 samples)
	maximum = 0.0528333 (1 samples)
Injected flit rate average = 0.0499115 (1 samples)
	minimum = 0.0470667 (1 samples)
	maximum = 0.0527 (1 samples)
Accepted flit rate average = 0.0499177 (1 samples)
	minimum = 0.0471 (1 samples)
	maximum = 0.0528333 (1 samples)
Injected packet size average = 1 (1 samples)
Accepted packet size average = 1 (1 samples)
Hops average = 6.25464 (1 samples)
Total run time 59.5619
