BEGIN Configuration File: examples/ecc_mesh88_config_1_0.450_link_2
// $Id$

// Copyright (c) 2007-2015, Trustees of The Leland Stanford Junior University
// All rights reserved.
//
// Redistribution and use in source and binary forms, with or without
// modification, are permitted provided that the following conditions are met:
//
// Redistributions of source code must retain the above copyright notice, this
// list of conditions and the following disclaimer.
// Redistributions in binary form must reproduce the above copyright notice,
// this list of conditions and the following disclaimer in the documentation
// and/or other materials provided with the distribution.
//
// THIS SOFTWARE IS PROVIDED BY THE COPYRIGHT HOLDERS AND CONTRIBUTORS "AS IS"
// AND ANY EXPRESS OR IMPLIED WARRANTIES, INCLUDING, BUT NOT LIMITED TO, THE
// IMPLIED WARRANTIES OF MERCHANTABILITY AND FITNESS FOR A PARTICULAR PURPOSE
// ARE DISCLAIMED. IN NO EVENT SHALL THE COPYRIGHT OWNER OR CONTRIBUTORS BE
// LIABLE FOR ANY DIRECT, INDIRECT, INCIDENTAL, SPECIAL, EXEMPLARY, OR
// CONSEQUENTIAL DAMAGES (INCLUDING, BUT NOT LIMITED TO, PROCUREMENT OF
// SUBSTITUTE GOODS OR SERVICES; LOSS OF USE, DATA, OR PROFITS; OR BUSINESS
// INTERRUPTION) HOWEVER CAUSED AND ON ANY THEORY OF LIABILITY, WHETHER IN
// CONTRACT, STRICT LIABILITY, OR TORT (INCLUDING NEGLIGENCE OR OTHERWISE)
// ARISING IN ANY WAY OUT OF THE USE OF THIS SOFTWARE, EVEN IF ADVISED OF THE
// POSSIBILITY OF SUCH DAMAGE.

// Dragonfly
//




vc_buf_size = 256;


wait_for_tail_credit = 0;

//
// Router architecture
//
vc_allocator = separable_input_first; 
sw_allocator = separable_input_first;
alloc_iters  = 1;

credit_delay   = 2;
routing_delay  = 0;
vc_alloc_delay = 1;
sw_alloc_delay = 1;
st_final_delay = 1;

input_speedup     = 1;
output_speedup    = 1;
internal_speedup  = 2.0;


warmup_periods = 3;
sim_count          = 1;

sample_period  = 10000;  


routing_function = dor;
num_vcs     = 2;

priority = none;
traffic       = uniform; 

injection_rate = 0.45;
packet_size = 1;
injection_rate_uses_flits=1;

topology = mesh;

k  = 8;
n  = 2;

fer = 2;
ecc = link;
correctable = 1;

watch_out=-;
watch_file = watch.txt;

ecc = link;

stats_out = examples/ecc_mesh88_config_1_0.450_link_2.m;

END Configuration File: examples/ecc_mesh88_config_1_0.450_link_2
Requeued flit 732
Requeued flit 1218
Requeued flit 913
Requeued flit 1387
Requeued flit 1901
Requeued flit 2072
Requeued flit 1956
Requeued flit 2801
Requeued flit 2622
Requeued flit 2803
Requeued flit 3307
Requeued flit 3618
Requeued flit 4436
Requeued flit 4452
Requeued flit 5033
Requeued flit 4875
Requeued flit 3946
Requeued flit 5102
Requeued flit 6314
Requeued flit 6509
Requeued flit 6448
Requeued flit 7078
Requeued flit 6648
Requeued flit 8154
Requeued flit 8515
Requeued flit 7778
Requeued flit 7661
Requeued flit 9121
Requeued flit 8465
Requeued flit 9113
Requeued flit 9299
Requeued flit 10162
Requeued flit 10826
Requeued flit 10276
Requeued flit 10421
Requeued flit 11310
Requeued flit 12727
Requeued flit 11721
Requeued flit 12789
Requeued flit 13143
Requeued flit 13098
Requeued flit 13855
Requeued flit 14595
Requeued flit 14180
Requeued flit 14879
Requeued flit 14821
Requeued flit 14665
Requeued flit 15862
Requeued flit 16861
Requeued flit 16942
Requeued flit 17186
Requeued flit 17771
Requeued flit 18144
Requeued flit 18174
Requeued flit 18157
Requeued flit 18917
Requeued flit 19453
Requeued flit 21263
Requeued flit 21695
Requeued flit 22558
Requeued flit 22709
Requeued flit 22877
Requeued flit 24526
Requeued flit 25436
Requeued flit 26619
Requeued flit 26955
Requeued flit 27626
Requeued flit 28079
Requeued flit 27837
Requeued flit 28748
Requeued flit 29129
Requeued flit 29257
Requeued flit 29749
Requeued flit 30859
Requeued flit 31481
Requeued flit 31608
Requeued flit 31401
Requeued flit 31738
Requeued flit 31478
Requeued flit 31333
Requeued flit 33065
Requeued flit 33813
Requeued flit 33755
Requeued flit 33414
Requeued flit 34403
Requeued flit 34413
Requeued flit 34698
Requeued flit 36315
Requeued flit 35949
Requeued flit 36271
Requeued flit 38195
Requeued flit 38486
Requeued flit 38927
Requeued flit 41276
Requeued flit 40285
Requeued flit 41744
Requeued flit 41786
Requeued flit 42151
Requeued flit 43142
Requeued flit 43947
Requeued flit 44639
Requeued flit 44193
Requeued flit 45701
Requeued flit 46483
Requeued flit 46634
Requeued flit 48020
Requeued flit 47631
Requeued flit 47432
Requeued flit 48866
Requeued flit 49412
Requeued flit 48948
Requeued flit 50647
Requeued flit 50991
Requeued flit 51297
Requeued flit 51828
Requeued flit 52670
Requeued flit 53016
Requeued flit 53611
Requeued flit 53292
Requeued flit 54743
Requeued flit 55234
Requeued flit 55870
Requeued flit 56514
Requeued flit 56436
Requeued flit 56027
Requeued flit 56686
Requeued flit 57256
Requeued flit 57383
Requeued flit 57686
Requeued flit 59031
Requeued flit 60516
Requeued flit 60528
Requeued flit 61143
Requeued flit 60639
Requeued flit 61169
Requeued flit 61401
Requeued flit 62353
Requeued flit 62602
Requeued flit 62809
Requeued flit 63275
Requeued flit 62876
Requeued flit 63761
Requeued flit 63547
Requeued flit 63405
Requeued flit 63712
Requeued flit 64829
Requeued flit 65104
Requeued flit 63491
Requeued flit 65963
Requeued flit 66847
Requeued flit 67394
Requeued flit 68230
Requeued flit 69297
Requeued flit 69856
Requeued flit 70177
Requeued flit 70584
Requeued flit 71009
Requeued flit 71142
Requeued flit 72664
Requeued flit 72669
Requeued flit 72824
Requeued flit 73307
Requeued flit 73345
Requeued flit 74067
Requeued flit 75086
Requeued flit 74943
Requeued flit 75251
Requeued flit 76602
Requeued flit 76867
Requeued flit 76858
Requeued flit 78280
Requeued flit 78688
Requeued flit 78637
Requeued flit 79521
Requeued flit 80369
Requeued flit 79654
Requeued flit 80310
Requeued flit 80390
Requeued flit 80473
Requeued flit 81625
Requeued flit 81566
Requeued flit 81825
Requeued flit 82817
Requeued flit 83286
Requeued flit 83611
Requeued flit 83972
Requeued flit 83228
Requeued flit 83751
Requeued flit 83672
Requeued flit 84121
Requeued flit 84718
Requeued flit 85109
Requeued flit 85910
Requeued flit 86904
Requeued flit 87722
Requeued flit 88729
Requeued flit 88805
Requeued flit 88624
Requeued flit 89474
Requeued flit 90964
Requeued flit 93993
Requeued flit 94070
Requeued flit 94760
Requeued flit 95095
Requeued flit 95205
Requeued flit 94839
Requeued flit 95801
Requeued flit 96345
Requeued flit 96675
Requeued flit 96789
Requeued flit 98959
Requeued flit 99399
Requeued flit 100387
Requeued flit 101037
Requeued flit 100981
Requeued flit 102676
Requeued flit 103293
Requeued flit 103084
Requeued flit 103040
Requeued flit 103967
Requeued flit 104093
Requeued flit 104768
Requeued flit 104211
Requeued flit 104945
Requeued flit 106813
Requeued flit 107025
Requeued flit 107127
Requeued flit 107053
Requeued flit 108363
Requeued flit 108422
Requeued flit 108028
Requeued flit 108073
Requeued flit 109303
Requeued flit 109748
Requeued flit 110594
Requeued flit 110980
Requeued flit 110985
Requeued flit 110640
Requeued flit 111863
Requeued flit 112420
Requeued flit 112480
Requeued flit 112510
Requeued flit 113191
Requeued flit 114425
Requeued flit 114363
Requeued flit 115063
Requeued flit 116260
Requeued flit 116455
Requeued flit 116140
Requeued flit 116126
Requeued flit 116499
Requeued flit 116808
Requeued flit 116355
Requeued flit 116910
Requeued flit 117753
Requeued flit 117377
Requeued flit 117977
Requeued flit 118971
Requeued flit 118135
Requeued flit 119132
Requeued flit 118614
Requeued flit 119529
Requeued flit 119094
Requeued flit 120574
Requeued flit 119661
Requeued flit 120654
Requeued flit 121628
Requeued flit 121814
Requeued flit 122045
Requeued flit 121618
Requeued flit 121765
Requeued flit 122773
Requeued flit 124292
Requeued flit 124488
Requeued flit 126143
Requeued flit 125723
Requeued flit 125110
Requeued flit 126473
Requeued flit 126863
Requeued flit 127173
Requeued flit 127743
Requeued flit 127560
Requeued flit 128237
Requeued flit 128282
Requeued flit 128651
Requeued flit 128369
Requeued flit 128916
Requeued flit 129427
Requeued flit 129914
Requeued flit 130669
Requeued flit 131667
Requeued flit 131012
Requeued flit 132625
Requeued flit 132957
Requeued flit 133855
Requeued flit 133941
Requeued flit 133996
Requeued flit 134529
Requeued flit 135191
Requeued flit 135355
Requeued flit 135966
Requeued flit 134920
Requeued flit 135526
Requeued flit 136450
Requeued flit 137722
Requeued flit 138019
Requeued flit 139329
Requeued flit 138415
Requeued flit 138922
Requeued flit 139312
Requeued flit 139491
Requeued flit 140135
Requeued flit 141120
Requeued flit 140826
Requeued flit 142253
Requeued flit 142429
Requeued flit 142579
Requeued flit 142580
Requeued flit 143589
Requeued flit 143641
Requeued flit 144053
Requeued flit 144134
Requeued flit 143541
Requeued flit 144627
Requeued flit 144655
Requeued flit 144103
Requeued flit 143909
Requeued flit 145428
Requeued flit 145090
Requeued flit 145525
Requeued flit 145592
Requeued flit 145523
Requeued flit 145575
Requeued flit 145659
Requeued flit 146365
Requeued flit 146007
Requeued flit 146433
Requeued flit 147060
Requeued flit 146844
Requeued flit 148637
Requeued flit 149145
Requeued flit 149353
Requeued flit 149167
Requeued flit 149633
Requeued flit 150196
Requeued flit 150778
Requeued flit 150518
Requeued flit 150729
Requeued flit 150762
Requeued flit 151023
Requeued flit 150654
Requeued flit 150662
Requeued flit 151126
Requeued flit 151637
Requeued flit 151605
Requeued flit 152118
Requeued flit 152511
Requeued flit 153285
Requeued flit 153297
Requeued flit 154411
Requeued flit 155062
Requeued flit 155171
Requeued flit 156708
Requeued flit 156612
Requeued flit 157295
Requeued flit 157431
Requeued flit 158428
Requeued flit 158405
Requeued flit 159353
Requeued flit 159154
Requeued flit 158850
Requeued flit 159515
Requeued flit 160113
Requeued flit 160150
Requeued flit 161034
Requeued flit 161629
Requeued flit 159977
Requeued flit 162830
Requeued flit 163145
Requeued flit 163007
Requeued flit 162822
Requeued flit 163397
Requeued flit 164102
Requeued flit 164495
Requeued flit 165008
Requeued flit 164895
Requeued flit 165634
Requeued flit 165587
Requeued flit 166031
Requeued flit 166599
Requeued flit 168450
Requeued flit 168769
Requeued flit 170295
Requeued flit 171131
Requeued flit 171765
Requeued flit 171648
Requeued flit 172119
Requeued flit 173179
Requeued flit 172246
Requeued flit 173806
Requeued flit 173681
Requeued flit 173320
Requeued flit 173992
Requeued flit 173846
Requeued flit 173813
Requeued flit 173962
Requeued flit 173781
Requeued flit 174061
Requeued flit 174119
Requeued flit 174691
Requeued flit 174677
Requeued flit 175263
Requeued flit 174983
Requeued flit 174574
Requeued flit 175824
Requeued flit 176853
Requeued flit 176292
Requeued flit 176769
Requeued flit 176081
Requeued flit 177333
Requeued flit 177757
Requeued flit 177851
Requeued flit 178347
Requeued flit 179545
Requeued flit 179927
Requeued flit 180451
Requeued flit 181732
Requeued flit 182037
Requeued flit 181958
Requeued flit 181999
Requeued flit 181803
Requeued flit 181748
Requeued flit 182324
Requeued flit 182523
Requeued flit 183263
Requeued flit 184618
Requeued flit 184330
Requeued flit 185036
Requeued flit 185884
Requeued flit 185745
Requeued flit 186699
Requeued flit 185792
Requeued flit 186670
Requeued flit 188412
Requeued flit 188643
Requeued flit 188874
Requeued flit 189020
Requeued flit 189040
Requeued flit 189658
Requeued flit 190697
Requeued flit 190900
6668 | node20 | Enqueuing flit 192022 (packet 192022) at time 6668.
6668 | traffic_manager | Finding output VC for flit 192022:
6668 | traffic_manager |   Selected output VC 0.
6668 | network_0/router_2_4 | Adding VC range [0,1] at output port 2 for flit 192022 (input port 4, destination 44).
6668 | node20 | Generating lookahead routing info for flit 192022.
6668 | node20 | Injecting flit 192022 into subnet 0 at time 6668 with priority 0.
6669 | network_0/network_0_fchan_ingress20 | Beginning channel traversal for flit 192022 with delay 1.
6669 | network_0/network_0_fchan_ingress20 | Completed channel traversal for flit 192022.
6670 | network_0/router_2_4 | Received flit 192022 from channel at input 4.
6670 | network_0/router_2_4 | Adding flit 192022 to VC 0 at input 4 (state: idle, empty).
6670 | network_0/router_2_4 | Using precomputed lookahead routing information for VC 0 at input 4 (front: 192022).
6670 | network_0/router_2_4/buf_4/vc_0 | Changing state from idle to vc_alloc.
6670 | network_0/router_2_4 | Beginning VC allocation for VC 0 at input 4 (front: 192022).
6670 | network_0/router_2_4 |   Requesting VC 0 at output 2 (in_pri: 0, out_pri: 0).
6670 | network_0/router_2_4 |   Requesting VC 1 at output 2 (in_pri: 0, out_pri: 0).
6670 | network_0/router_2_4/vc_allocator | Input requests = [ 2 -> [ 0@0 1@0 ]  6 -> [ 4@0 5@0 ]  8 -> [ 4@0 5@0 ]  ], output requests = [ 0 -> [ 2@0 ]  1 -> [ 2@0 ]  4 -> [ 6@0 8@0 ]  5 -> [ 6@0 8@0 ]  ].
6670 | network_0/router_2_4/vc_allocator | Input grants = [ 2 -> 1  6 -> 5  8 -> 4  ], output grants = [ 1 -> 2  4 -> 8  5 -> 6  ].
6670 | network_0/router_2_4 | Assigning VC 0 at output 2 to VC 0 at input 4.
6670 | network_0/router_2_4 | Completed VC allocation for VC 0 at input 4 (front: 192022).
6670 | network_0/router_2_4 |   Acquiring assigned VC 0 at output 2.
6670 | network_0/router_2_4/buf_4/vc_0 | Changing state from vc_alloc to active.
6670 | network_0/router_2_4 | Beginning switch allocation for VC 0 at input 4 (front: 192022).
6670 | network_0/router_2_4 |   Requesting output 2.0 (non-spec, pri: 0).
6670 | network_0/router_2_4/sw_allocator | Input requests = [ 1 -> [ 0@0 ]  3 -> [ 2@0 ]  4 -> [ 2@0 ]  ], output requests = [ 0 -> [ 1@0 ]  2 -> [ 3@0 4@0 ]  ].
6670 | network_0/router_2_4/sw_allocator | Input grants = [ 1 -> 0  3 -> 2  ], output grants = [ 0 -> 1  2 -> 3  ].
6670 | network_0/router_2_4 | Switch allocation failed for VC 0 at input 4: No output granted.
6670 | network_0/router_2_4 | Completed switch allocation for VC 0 at input 4 (front: 192022).
6670 | network_0/router_2_4 |   No output port allocated.
6671 | network_0/router_2_4 | Beginning switch allocation for VC 0 at input 4 (front: 192022).
6671 | network_0/router_2_4 |   Requesting output 2.0 (non-spec, pri: 0).
6671 | network_0/router_2_4/sw_allocator | Input requests = [ 4 -> [ 2@0 ]  ], output requests = [ 2 -> [ 4@0 ]  ].
6671 | network_0/router_2_4/sw_allocator | Input grants = [ 4 -> 2  ], output grants = [ 2 -> 4  ].
6671 | network_0/router_2_4 | Assigning output 2.0 to VC 0 at input 4.0.
6671 | network_0/router_2_4 | Completed switch allocation for VC 0 at input 4 (front: 192022).
6671 | network_0/router_2_4 |   Scheduling switch connection from input 4.0 to output 2.0.
6671 | network_0/router_2_4 | Updating lookahead routing information for flit 192022.
6671 | network_0/router_3_4 | Adding VC range [0,1] at output port 2 for flit 192022 (input port 3, destination 44).
6671 | network_0/router_2_4 | Beginning crossbar traversal for flit 192022 from input 4.0 to output 2.0.
6671 | network_0/router_2_4 | Completed crossbar traversal for flit 192022 from input 4.0 to output 2.0.
6671 | network_0/router_2_4 | Buffering flit 192022 at output 2.
6672 | network_0/router_2_4 | Sending flit 192022 to channel at output 2.
6673 | network_0/network_0_fchan_82 | Beginning channel traversal for flit 192022 with delay 1.
6673 | network_0/network_0_fchan_82 | Completed channel traversal for flit 192022.
6674 | network_0/router_3_4 | Received flit 192022 from channel at input 3.
6674 | network_0/router_3_4 | Adding flit 192022 to VC 0 at input 3 (state: idle, empty).
6674 | network_0/router_3_4 | Using precomputed lookahead routing information for VC 0 at input 3 (front: 192022).
6674 | network_0/router_3_4/buf_3/vc_0 | Changing state from idle to vc_alloc.
6674 | network_0/router_3_4 | Beginning VC allocation for VC 0 at input 3 (front: 192022).
6674 | network_0/router_3_4 |   Requesting VC 0 at output 2 (in_pri: 0, out_pri: 0).
6674 | network_0/router_3_4 |   Requesting VC 1 at output 2 (in_pri: 0, out_pri: 0).
6674 | network_0/router_3_4/vc_allocator | Input requests = [ 1 -> [ 2@0 3@0 ]  2 -> [ 0@0 ]  5 -> [ 6@0 7@0 ]  6 -> [ 4@0 5@0 ]  8 -> [ 2@0 3@0 ]  ], output requests = [ 0 -> [ 2@0 ]  2 -> [ 1@0 8@0 ]  3 -> [ 1@0 8@0 ]  4 -> [ 6@0 ]  5 -> [ 6@0 ]  6 -> [ 5@0 ]  7 -> [ 5@0 ]  ].
6674 | network_0/router_3_4/vc_allocator | Input grants = [ 1 -> 2  2 -> 0  5 -> 7  6 -> 4  ], output grants = [ 0 -> 2  2 -> 1  4 -> 6  7 -> 5  ].
6674 | network_0/router_3_4 | Assigning VC 0 at output 2 to VC 0 at input 3.
6674 | network_0/router_3_4 | Completed VC allocation for VC 0 at input 3 (front: 192022).
6674 | network_0/router_3_4 |   Acquiring assigned VC 0 at output 2.
6674 | network_0/router_3_4/buf_3/vc_0 | Changing state from vc_alloc to active.
6674 | network_0/router_3_4 | Beginning switch allocation for VC 0 at input 3 (front: 192022).
6674 | network_0/router_3_4 |   Requesting output 2.0 (non-spec, pri: 0).
6674 | network_0/router_3_4/sw_allocator | Input requests = [ 0 -> [ 1@0 ]  1 -> [ 0@0 ]  2 -> [ 3@0 ]  3 -> [ 2@0 ]  ], output requests = [ 0 -> [ 1@0 ]  1 -> [ 0@0 ]  2 -> [ 3@0 ]  3 -> [ 2@0 ]  ].
6674 | network_0/router_3_4/sw_allocator | Input grants = [ 0 -> 1  1 -> 0  2 -> 3  3 -> 2  ], output grants = [ 0 -> 1  1 -> 0  2 -> 3  3 -> 2  ].
6674 | network_0/router_3_4 | Assigning output 2.0 to VC 0 at input 3.0.
6674 | network_0/router_3_4 | Completed switch allocation for VC 0 at input 3 (front: 192022).
6674 | network_0/router_3_4 |   Scheduling switch connection from input 3.0 to output 2.0.
6674 | network_0/router_3_4 | Updating lookahead routing information for flit 192022.
6674 | network_0/router_4_4 | Adding VC range [0,1] at output port 2 for flit 192022 (input port 3, destination 44).
6675 | network_0/router_3_4 | Beginning crossbar traversal for flit 192022 from input 3.0 to output 2.0.
6675 | network_0/router_3_4 | Completed crossbar traversal for flit 192022 from input 3.0 to output 2.0.
6675 | network_0/router_3_4 | Buffering flit 192022 at output 2.
6676 | network_0/router_3_4 | Sending flit 192022 to channel at output 2.
6677 | network_0/network_0_fchan_114 | Beginning channel traversal for flit 192022 with delay 1.
6677 | network_0/network_0_fchan_114 | Completed channel traversal for flit 192022.
6678 | network_0/router_4_4 | Received flit 192022 from channel at input 3.
6678 | network_0/router_4_4 | Adding flit 192022 to VC 0 at input 3 (state: idle, empty).
6678 | network_0/router_4_4 | Using precomputed lookahead routing information for VC 0 at input 3 (front: 192022).
6678 | network_0/router_4_4/buf_3/vc_0 | Changing state from idle to vc_alloc.
6678 | network_0/router_4_4 | Beginning VC allocation for VC 0 at input 3 (front: 192022).
6678 | network_0/router_4_4 |   Requesting VC 0 at output 2 (in_pri: 0, out_pri: 0).
6678 | network_0/router_4_4 |   Requesting VC 1 at output 2 (in_pri: 0, out_pri: 0).
6678 | network_0/router_4_4/vc_allocator | Input requests = [ 0 -> [ 2@0 3@0 ]  2 -> [ 4@0 5@0 ]  5 -> [ 6@0 7@0 ]  6 -> [ 4@0 5@0 ]  ], output requests = [ 2 -> [ 0@0 ]  3 -> [ 0@0 ]  4 -> [ 2@0 6@0 ]  5 -> [ 2@0 6@0 ]  6 -> [ 5@0 ]  7 -> [ 5@0 ]  ].
6678 | network_0/router_4_4/vc_allocator | Input grants = [ 0 -> 2  2 -> 4  5 -> 7  6 -> 5  ], output grants = [ 2 -> 0  4 -> 2  5 -> 6  7 -> 5  ].
6678 | network_0/router_4_4 | Assigning VC 1 at output 2 to VC 0 at input 3.
6678 | network_0/router_4_4 | Completed VC allocation for VC 0 at input 3 (front: 192022).
6678 | network_0/router_4_4 |   Acquiring assigned VC 1 at output 2.
6678 | network_0/router_4_4/buf_3/vc_0 | Changing state from vc_alloc to active.
6678 | network_0/router_4_4 | Beginning switch allocation for VC 0 at input 3 (front: 192022).
6678 | network_0/router_4_4 |   Requesting output 2.0 (non-spec, pri: 0).
6678 | network_0/router_4_4/sw_allocator | Input requests = [ 0 -> [ 1@0 ]  1 -> [ 2@0 ]  2 -> [ 3@0 ]  3 -> [ 2@0 ]  ], output requests = [ 1 -> [ 0@0 ]  2 -> [ 1@0 3@0 ]  3 -> [ 2@0 ]  ].
6678 | network_0/router_4_4/sw_allocator | Input grants = [ 0 -> 1  1 -> 2  2 -> 3  ], output grants = [ 1 -> 0  2 -> 1  3 -> 2  ].
6678 | network_0/router_4_4 | Switch allocation failed for VC 0 at input 3: No output granted.
6678 | network_0/router_4_4 | Completed switch allocation for VC 0 at input 3 (front: 192022).
6678 | network_0/router_4_4 |   No output port allocated.
6679 | network_0/router_4_4 | Beginning switch allocation for VC 0 at input 3 (front: 192022).
6679 | network_0/router_4_4 |   Requesting output 2.0 (non-spec, pri: 0).
6679 | network_0/router_4_4/sw_allocator | Input requests = [ 3 -> [ 2@0 ]  ], output requests = [ 2 -> [ 3@0 ]  ].
6679 | network_0/router_4_4/sw_allocator | Input grants = [ 3 -> 2  ], output grants = [ 2 -> 3  ].
6679 | network_0/router_4_4 | Assigning output 2.0 to VC 0 at input 3.0.
6679 | network_0/router_4_4 | Completed switch allocation for VC 0 at input 3 (front: 192022).
6679 | network_0/router_4_4 |   Scheduling switch connection from input 3.0 to output 2.0.
6679 | network_0/router_4_4 | Updating lookahead routing information for flit 192022.
6679 | network_0/router_5_4 | Adding VC range [0,1] at output port 4 for flit 192022 (input port 3, destination 44).
6679 | network_0/router_4_4 | Beginning crossbar traversal for flit 192022 from input 3.0 to output 2.0.
6679 | network_0/router_4_4 | Completed crossbar traversal for flit 192022 from input 3.0 to output 2.0.
6679 | network_0/router_4_4 | Buffering flit 192022 at output 2.
Requeued flit 192025
6680 | network_0/router_4_4 | Sending flit 192022 to channel at output 2.
6681 | network_0/network_0_fchan_146 | Beginning channel traversal for flit 192022 with delay 1.
Requeued flit 191016
6681 | network_0/network_0_fchan_146 | Completed channel traversal for flit 192022.
6682 | network_0/router_5_4 | Received flit 192022 from channel at input 3.
6682 | network_0/router_5_4 | Adding flit 192022 to VC 1 at input 3 (state: idle, empty).
6682 | network_0/router_5_4 | Using precomputed lookahead routing information for VC 1 at input 3 (front: 192022).
6682 | network_0/router_5_4/buf_3/vc_1 | Changing state from idle to vc_alloc.
6682 | network_0/router_5_4 | Beginning VC allocation for VC 1 at input 3 (front: 192022).
6682 | network_0/router_5_4 |   Requesting VC 0 at output 4 (in_pri: 0, out_pri: 0).
6682 | network_0/router_5_4 |   Requesting VC 1 at output 4 (in_pri: 0, out_pri: 0).
6682 | network_0/router_5_4/vc_allocator | Input requests = [ 0 -> [ 7@0 ]  2 -> [ 0@0 1@0 ]  7 -> [ 8@0 9@0 ]  ], output requests = [ 0 -> [ 2@0 ]  1 -> [ 2@0 ]  7 -> [ 0@0 ]  8 -> [ 7@0 ]  9 -> [ 7@0 ]  ].
6682 | network_0/router_5_4/vc_allocator | Input grants = [ 0 -> 7  2 -> 1  7 -> 8  ], output grants = [ 1 -> 2  7 -> 0  8 -> 7  ].
6682 | network_0/router_5_4 | Assigning VC 0 at output 4 to VC 1 at input 3.
6682 | network_0/router_5_4 | Completed VC allocation for VC 1 at input 3 (front: 192022).
6682 | network_0/router_5_4 |   Acquiring assigned VC 0 at output 4.
6682 | network_0/router_5_4/buf_3/vc_1 | Changing state from vc_alloc to active.
6682 | network_0/router_5_4 | Beginning switch allocation for VC 1 at input 3 (front: 192022).
6682 | network_0/router_5_4 |   Requesting output 4.0 (non-spec, pri: 0).
6682 | network_0/router_5_4/sw_allocator | Input requests = [ 0 -> [ 3@0 ]  1 -> [ 0@0 ]  3 -> [ 4@0 ]  ], output requests = [ 0 -> [ 1@0 ]  3 -> [ 0@0 ]  4 -> [ 3@0 ]  ].
6682 | network_0/router_5_4/sw_allocator | Input grants = [ 0 -> 3  1 -> 0  3 -> 4  ], output grants = [ 0 -> 1  3 -> 0  4 -> 3  ].
6682 | network_0/router_5_4 | Assigning output 4.0 to VC 1 at input 3.0.
6682 | network_0/router_5_4 | Completed switch allocation for VC 1 at input 3 (front: 192022).
6682 | network_0/router_5_4 |   Scheduling switch connection from input 3.0 to output 4.0.
6683 | network_0/router_5_4 | Beginning crossbar traversal for flit 192022 from input 3.0 to output 4.0.
6683 | network_0/router_5_4 | Completed crossbar traversal for flit 192022 from input 3.0 to output 4.0.
6683 | network_0/router_5_4 | Buffering flit 192022 at output 4.
6683 | network_0/router_5_4 | Sending flit 192022 to channel at output 4.
6684 | network_0/network_0_fchan_egress44 | Beginning channel traversal for flit 192022 with delay 1.
6684 | network_0/network_0_fchan_egress44 | Completed channel traversal for flit 192022.
6685 | node44 | Ejecting flit 192022 (packet 192022) from VC 0.
6685 | node44 | Injecting credit for VC 0 into subnet 0.
6685 | node44 | Retiring flit 192022 (packet 192022, src = 20, dest = 44, hops = 4, flat = 17).
6685 | node44 | Retiring packet 192022 (plat = 17, nlat = 17, frag = 0, src = 20, dest = 44).
Requeued flit 191389
Requeued flit 191973
Requeued flit 192723
Requeued flit 192700
Requeued flit 192760
Requeued flit 193484
Requeued flit 193435
Requeued flit 193890
Requeued flit 193837
Requeued flit 194463
Requeued flit 194111
Requeued flit 194471
Requeued flit 194599
Requeued flit 194966
Requeued flit 195402
Requeued flit 195453
Requeued flit 196756
Requeued flit 196551
Requeued flit 196748
Requeued flit 196608
Requeued flit 197737
Requeued flit 198563
Requeued flit 199060
Requeued flit 199608
Requeued flit 200132
Requeued flit 199954
Requeued flit 200769
Requeued flit 200714
Requeued flit 200801
Requeued flit 201034
Requeued flit 201610
Requeued flit 201872
Requeued flit 201494
Requeued flit 202817
Requeued flit 202339
Requeued flit 202729
Requeued flit 203371
Requeued flit 202396
Requeued flit 203497
Requeued flit 202777
Requeued flit 203446
Requeued flit 204623
Requeued flit 204248
Requeued flit 204423
Requeued flit 204600
Requeued flit 205136
Requeued flit 205649
Requeued flit 206094
Requeued flit 205520
Requeued flit 206149
Requeued flit 205942
Requeued flit 206015
Requeued flit 207087
Requeued flit 207156
Requeued flit 207066
Requeued flit 206643
Requeued flit 206057
Requeued flit 207772
Requeued flit 207930
Requeued flit 207839
Requeued flit 207594
Requeued flit 208997
Requeued flit 209518
Requeued flit 209572
Requeued flit 210111
Requeued flit 210145
Requeued flit 210287
Requeued flit 211125
Requeued flit 210720
Requeued flit 211470
Requeued flit 212061
Requeued flit 212795
Requeued flit 213361
Requeued flit 213582
Requeued flit 213568
Requeued flit 213335
Requeued flit 214860
Requeued flit 215170
Requeued flit 214791
Requeued flit 215506
Requeued flit 215615
Requeued flit 215219
Requeued flit 215756
Requeued flit 216968
Requeued flit 217042
Requeued flit 216986
Requeued flit 217035
Requeued flit 217306
Requeued flit 217856
Requeued flit 218260
Requeued flit 218703
Requeued flit 219044
Requeued flit 218459
Requeued flit 218759
Requeued flit 219243
Requeued flit 219761
Requeued flit 220254
Requeued flit 220266
Requeued flit 220558
Requeued flit 220586
Requeued flit 220542
Requeued flit 223033
Requeued flit 223922
Requeued flit 224772
Requeued flit 224288
Requeued flit 225007
Requeued flit 225205
Requeued flit 226109
Requeued flit 226043
Requeued flit 226597
Requeued flit 226623
Requeued flit 226562
Requeued flit 227036
Requeued flit 227083
Requeued flit 227737
Requeued flit 227997
Requeued flit 228374
Requeued flit 229207
Requeued flit 230213
Requeued flit 231076
Requeued flit 232216
Requeued flit 233073
Requeued flit 232827
Requeued flit 233554
Requeued flit 233778
Requeued flit 233893
Requeued flit 234853
Requeued flit 234601
Requeued flit 234406
Requeued flit 235672
Requeued flit 237035
Requeued flit 236956
Requeued flit 238004
Requeued flit 238719
Requeued flit 237975
Requeued flit 238437
Requeued flit 239459
Requeued flit 240543
Requeued flit 240178
Requeued flit 241101
Requeued flit 242332
Requeued flit 243044
Requeued flit 242495
Requeued flit 243364
Requeued flit 243451
Requeued flit 242905
Requeued flit 244063
Requeued flit 243985
Requeued flit 244009
Requeued flit 244207
Requeued flit 244747
Requeued flit 244674
Requeued flit 244908
Requeued flit 245374
Requeued flit 246102
Requeued flit 245594
Requeued flit 245809
Requeued flit 246366
Requeued flit 246560
Requeued flit 245909
Requeued flit 247150
Requeued flit 246966
Requeued flit 246863
Requeued flit 247604
Requeued flit 248726
Requeued flit 249085
Requeued flit 249700
Requeued flit 249096
Requeued flit 249808
Requeued flit 249554
Requeued flit 250935
Requeued flit 250388
Requeued flit 251493
Requeued flit 251748
Requeued flit 252033
Requeued flit 252720
Requeued flit 252645
Requeued flit 253367
Requeued flit 253151
Requeued flit 253119
Requeued flit 254648
Requeued flit 254924
Requeued flit 254947
Requeued flit 255685
Requeued flit 256469
Requeued flit 255868
Requeued flit 256765
Requeued flit 256854
Requeued flit 258391
Requeued flit 258360
Requeued flit 257831
Requeued flit 259170
Requeued flit 258812
Requeued flit 259677
Requeued flit 260071
Requeued flit 260328
Requeued flit 260938
Requeued flit 261179
Requeued flit 261532
Requeued flit 262184
Requeued flit 262389
Requeued flit 262695
Requeued flit 263592
Requeued flit 263056
Requeued flit 263364
Requeued flit 264019
Requeued flit 264310
Requeued flit 265117
Requeued flit 265608
Requeued flit 264808
Requeued flit 265977
Requeued flit 266842
Requeued flit 267183
Requeued flit 267082
Requeued flit 268045
Requeued flit 268912
Requeued flit 269091
Requeued flit 269645
Requeued flit 269630
Requeued flit 268714
Requeued flit 270387
Requeued flit 270782
Requeued flit 270841
Requeued flit 271096
Requeued flit 272129
Requeued flit 271856
Requeued flit 271860
Requeued flit 272336
Requeued flit 272428
Requeued flit 272919
Requeued flit 272836
Requeued flit 273420
Requeued flit 274295
Requeued flit 274112
Requeued flit 274299
Requeued flit 274002
Requeued flit 273678
Requeued flit 274899
Requeued flit 274516
Requeued flit 274869
Requeued flit 274472
Requeued flit 274893
Requeued flit 275821
Requeued flit 275262
Requeued flit 275118
Requeued flit 277073
Requeued flit 277044
Requeued flit 277023
Requeued flit 278003
Requeued flit 277802
Requeued flit 278354
Requeued flit 279331
Requeued flit 280453
Requeued flit 280340
Requeued flit 280481
Requeued flit 280922
Requeued flit 281310
Requeued flit 281089
Requeued flit 281718
Requeued flit 282765
Requeued flit 282157
Requeued flit 282879
Requeued flit 283248
Requeued flit 283617
Requeued flit 283177
Requeued flit 284254
Requeued flit 286590
Requeued flit 286252
Requeued flit 286660
Requeued flit 286432
Class 0:
Packet latency average = 27.0357
	minimum = 5
	maximum = 94
Network latency average = 27.0357
	minimum = 5
	maximum = 94
Slowest packet = 129944
Flit latency average = 27.0357
	minimum = 5
	maximum = 94
Slowest flit = 129944
Fragmentation average = 0
	minimum = 0
	maximum = 0
Injected packet rate average = 0.448994
	minimum = 0.4401 (at node 15)
	maximum = 0.4646 (at node 3)
Accepted packet rate average = 0.447781
	minimum = 0.4344 (at node 21)
	maximum = 0.4618 (at node 28)
Injected flit rate average = 0.448994
	minimum = 0.4401 (at node 15)
	maximum = 0.4646 (at node 3)
Accepted flit rate average= 0.447781
	minimum = 0.4344 (at node 21)
	maximum = 0.4618 (at node 28)
Injected packet length average = 1
Accepted packet length average = 1
Total in-flight flits = 776 (0 measured)
latency change    = 1
throughput change = 1
Requeued flit 287172
Requeued flit 287135
Requeued flit 287410
Requeued flit 287304
Requeued flit 287798
Requeued flit 287328
Requeued flit 287830
Requeued flit 289494
Requeued flit 289744
Requeued flit 290287
Requeued flit 290518
Requeued flit 290748
Requeued flit 290482
Requeued flit 291201
Requeued flit 291204
Requeued flit 291008
Requeued flit 291073
Requeued flit 291648
Requeued flit 291981
Requeued flit 292405
Requeued flit 293290
Requeued flit 293267
Requeued flit 293496
Requeued flit 293309
Requeued flit 293822
Requeued flit 293946
Requeued flit 294170
Requeued flit 294175
Requeued flit 295067
Requeued flit 294861
Requeued flit 295726
Requeued flit 295460
Requeued flit 295603
Requeued flit 296258
Requeued flit 297209
Requeued flit 297743
Requeued flit 298413
Requeued flit 298685
Requeued flit 299000
Requeued flit 299763
Requeued flit 299630
Requeued flit 299176
Requeued flit 299591
Requeued flit 300165
Requeued flit 300627
Requeued flit 299733
Requeued flit 299926
Requeued flit 300416
Requeued flit 301877
Requeued flit 302132
Requeued flit 302480
Requeued flit 302514
Requeued flit 302595
Requeued flit 303247
Requeued flit 303236
Requeued flit 304194
Requeued flit 303618
Requeued flit 304270
Requeued flit 305020
Requeued flit 306799
Requeued flit 306961
Requeued flit 306823
Requeued flit 306977
Requeued flit 308440
Requeued flit 309004
Requeued flit 309507
Requeued flit 309732
Requeued flit 310647
Requeued flit 310484
Requeued flit 310304
Requeued flit 311764
Requeued flit 311575
Requeued flit 312300
Requeued flit 313094
Requeued flit 313150
Requeued flit 313596
Requeued flit 313542
Requeued flit 313806
Requeued flit 313059
Requeued flit 313730
Requeued flit 314928
Requeued flit 315054
Requeued flit 315270
Requeued flit 315630
Requeued flit 315291
Requeued flit 315348
Requeued flit 315670
Requeued flit 316235
Requeued flit 316733
Requeued flit 317381
Requeued flit 318094
Requeued flit 318410
Requeued flit 319993
Requeued flit 320183
Requeued flit 320554
Requeued flit 320433
Requeued flit 321079
Requeued flit 320891
Requeued flit 321046
Requeued flit 321409
Requeued flit 321195
Requeued flit 320699
Requeued flit 320987
Requeued flit 321645
Requeued flit 321609
Requeued flit 322307
Requeued flit 320762
Requeued flit 324112
Requeued flit 324925
Requeued flit 325140
Requeued flit 325132
Requeued flit 325643
Requeued flit 326387
Requeued flit 326609
Requeued flit 327472
Requeued flit 327582
Requeued flit 328645
Requeued flit 329538
Requeued flit 329152
Requeued flit 330595
Requeued flit 330288
Requeued flit 331585
Requeued flit 331573
Requeued flit 332206
Requeued flit 332816
Requeued flit 332721
Requeued flit 333194
Requeued flit 333676
Requeued flit 333845
Requeued flit 334912
Requeued flit 334283
Requeued flit 335296
Requeued flit 336531
Requeued flit 336022
Requeued flit 336597
Requeued flit 338044
Requeued flit 338034
Requeued flit 338835
Requeued flit 338889
Requeued flit 338881
Requeued flit 339750
Requeued flit 338697
Requeued flit 339884
Requeued flit 338994
Requeued flit 340024
Requeued flit 340541
Requeued flit 341285
Requeued flit 341478
Requeued flit 341595
Requeued flit 342350
Requeued flit 341892
Requeued flit 342916
Requeued flit 343231
Requeued flit 343526
Requeued flit 343595
Requeued flit 343248
Requeued flit 343660
Requeued flit 344071
Requeued flit 344207
Requeued flit 344880
Requeued flit 346193
Requeued flit 346200
Requeued flit 345307
Requeued flit 347012
Requeued flit 346970
Requeued flit 348142
Requeued flit 348046
Requeued flit 348538
Requeued flit 349782
Requeued flit 349955
Requeued flit 350063
Requeued flit 350759
Requeued flit 350117
Requeued flit 351378
Requeued flit 350700
Requeued flit 351856
Requeued flit 352246
Requeued flit 352591
Requeued flit 352808
Requeued flit 353701
Requeued flit 354773
Requeued flit 354580
Requeued flit 355350
Requeued flit 355412
Requeued flit 355593
Requeued flit 355460
Requeued flit 356654
Requeued flit 356890
Requeued flit 356942
Requeued flit 356489
Requeued flit 358115
Requeued flit 357861
Requeued flit 359404
Requeued flit 358865
Requeued flit 360315
Requeued flit 360273
Requeued flit 360201
Requeued flit 360679
Requeued flit 360906
Requeued flit 361093
Requeued flit 361330
Requeued flit 362139
Requeued flit 362094
Requeued flit 362753
Requeued flit 362464
Requeued flit 363250
Requeued flit 363510
Requeued flit 362865
Requeued flit 364062
Requeued flit 363793
Requeued flit 363802
Requeued flit 364618
Requeued flit 365088
Requeued flit 365564
Requeued flit 366003
Requeued flit 366606
Requeued flit 366303
Requeued flit 367159
Requeued flit 367194
Requeued flit 366974
Requeued flit 367305
Requeued flit 367776
Requeued flit 369277
Requeued flit 369794
Requeued flit 369168
Requeued flit 369802
Requeued flit 370589
Requeued flit 370784
Requeued flit 371086
Requeued flit 370648
Requeued flit 371992
Requeued flit 373050
Requeued flit 374284
Requeued flit 374381
Requeued flit 374912
Requeued flit 376059
Requeued flit 375893
Requeued flit 376559
Requeued flit 376478
Requeued flit 376521
Requeued flit 376891
Requeued flit 378454
Requeued flit 378091
Requeued flit 379280
Requeued flit 382157
Requeued flit 381890
Requeued flit 383403
Requeued flit 383513
Requeued flit 383010
Requeued flit 382791
Requeued flit 383592
Requeued flit 384215
Requeued flit 383589
Requeued flit 383557
Requeued flit 384345
Requeued flit 384863
Requeued flit 385440
Requeued flit 385409
Requeued flit 385652
Requeued flit 387321
Requeued flit 388045
Requeued flit 387987
Requeued flit 388498
Requeued flit 388437
Requeued flit 388562
Requeued flit 388601
Requeued flit 390066
Requeued flit 390746
Requeued flit 392606
Requeued flit 392461
Requeued flit 392758
Requeued flit 392664
Requeued flit 393218
Requeued flit 393457
Requeued flit 394314
Requeued flit 394094
Requeued flit 394408
Requeued flit 395256
Requeued flit 395712
Requeued flit 396014
Requeued flit 396312
Requeued flit 396171
Requeued flit 396349
Requeued flit 396667
Requeued flit 397338
Requeued flit 397577
Requeued flit 398146
Requeued flit 397589
Requeued flit 397700
Requeued flit 399569
Requeued flit 399580
Requeued flit 399273
Requeued flit 400428
Requeued flit 400905
Requeued flit 400830
Requeued flit 401274
Requeued flit 400615
Requeued flit 401551
Requeued flit 401005
Requeued flit 401673
Requeued flit 402598
Requeued flit 402268
Requeued flit 403298
Requeued flit 403777
Requeued flit 404434
Requeued flit 404551
Requeued flit 405555
Requeued flit 405818
Requeued flit 406188
Requeued flit 407355
Requeued flit 407530
Requeued flit 407672
Requeued flit 407548
Requeued flit 407312
Requeued flit 408363
Requeued flit 409675
Requeued flit 410622
Requeued flit 410364
Requeued flit 410411
Requeued flit 409676
Requeued flit 411122
Requeued flit 412250
Requeued flit 413222
Requeued flit 413536
Requeued flit 414757
Requeued flit 414802
Requeued flit 415360
Requeued flit 416846
Requeued flit 416865
Requeued flit 417549
Requeued flit 417412
Requeued flit 417136
Requeued flit 416962
Requeued flit 416685
Requeued flit 419827
Requeued flit 419804
Requeued flit 419854
Requeued flit 418313
Requeued flit 420033
Requeued flit 419606
Requeued flit 420438
Requeued flit 420307
Requeued flit 421082
Requeued flit 421771
Requeued flit 423562
Requeued flit 423634
Requeued flit 423750
Requeued flit 425429
Requeued flit 426416
Requeued flit 426257
Requeued flit 426597
Requeued flit 427362
Requeued flit 427204
Requeued flit 427480
Requeued flit 428166
Requeued flit 428142
Requeued flit 428262
Requeued flit 429225
Requeued flit 430102
Requeued flit 429942
Requeued flit 429546
Requeued flit 430142
Requeued flit 430069
Requeued flit 431014
Requeued flit 431270
Requeued flit 431548
Requeued flit 431705
Requeued flit 431762
Requeued flit 432052
Requeued flit 433371
Requeued flit 433283
Requeued flit 433511
Requeued flit 434519
Requeued flit 435239
Requeued flit 434859
Requeued flit 436240
Requeued flit 435981
Requeued flit 435774
Requeued flit 436590
Requeued flit 436714
Requeued flit 436386
Requeued flit 437034
Requeued flit 437842
Requeued flit 438824
Requeued flit 439092
Requeued flit 438757
Requeued flit 439343
Requeued flit 439864
Requeued flit 440165
Requeued flit 439754
Requeued flit 440709
Requeued flit 441801
Requeued flit 442291
Requeued flit 442107
Requeued flit 444636
Requeued flit 446032
Requeued flit 446730
Requeued flit 447066
Requeued flit 446815
Requeued flit 447677
Requeued flit 447917
Requeued flit 448371
Requeued flit 448032
Requeued flit 447832
Requeued flit 448372
Requeued flit 448377
Requeued flit 448775
Requeued flit 448937
Requeued flit 449000
Requeued flit 449360
Requeued flit 449657
Requeued flit 450069
Requeued flit 450214
Requeued flit 450802
Requeued flit 451089
Requeued flit 450895
Requeued flit 450603
Requeued flit 453126
Requeued flit 453036
Requeued flit 453185
Requeued flit 454138
Requeued flit 453481
Requeued flit 454067
Requeued flit 454017
Requeued flit 454353
Requeued flit 454987
Requeued flit 455490
Requeued flit 455727
Requeued flit 455238
Requeued flit 455517
Requeued flit 456503
Requeued flit 456677
Requeued flit 456966
Requeued flit 456816
Requeued flit 456459
Requeued flit 456824
Requeued flit 458561
Requeued flit 458602
Requeued flit 458888
Requeued flit 459044
Requeued flit 458908
Requeued flit 459348
Requeued flit 459849
Requeued flit 459978
Requeued flit 460857
Requeued flit 460822
Requeued flit 461522
Requeued flit 464357
Requeued flit 464353
Requeued flit 465096
Requeued flit 464347
Requeued flit 465705
Requeued flit 465093
Requeued flit 466166
Requeued flit 466181
Requeued flit 466123
Requeued flit 466932
Requeued flit 467675
Requeued flit 468504
Requeued flit 468926
Requeued flit 468962
Requeued flit 469676
Requeued flit 470616
Requeued flit 470297
Requeued flit 471256
Requeued flit 471180
Requeued flit 471628
Requeued flit 472927
Requeued flit 473674
Requeued flit 473697
Requeued flit 474541
Requeued flit 473608
Requeued flit 475385
Requeued flit 474906
Requeued flit 475044
Requeued flit 476330
Requeued flit 475863
Requeued flit 476628
Requeued flit 476225
Requeued flit 477068
Requeued flit 477186
Requeued flit 477482
Requeued flit 477862
Requeued flit 478179
Requeued flit 478033
Requeued flit 479242
Requeued flit 478442
Requeued flit 479806
Requeued flit 480237
Requeued flit 479893
Requeued flit 480614
Requeued flit 480611
Requeued flit 480365
Requeued flit 480911
Requeued flit 481584
Requeued flit 482761
Requeued flit 481719
Requeued flit 483284
Requeued flit 483478
Requeued flit 484141
Requeued flit 484324
Requeued flit 483842
Requeued flit 484798
Requeued flit 484528
Requeued flit 484383
Requeued flit 486398
Requeued flit 487425
Requeued flit 487924
Requeued flit 488008
Requeued flit 488976
Requeued flit 489155
Requeued flit 490875
Requeued flit 490939
Requeued flit 491929
Requeued flit 492056
Requeued flit 491276
Requeued flit 492156
Requeued flit 492674
Requeued flit 492874
Requeued flit 492267
Requeued flit 493937
Requeued flit 493746
Requeued flit 495037
Requeued flit 494389
Requeued flit 494862
Requeued flit 495717
Requeued flit 495284
Requeued flit 495129
Requeued flit 495514
Requeued flit 496749
Requeued flit 496367
Requeued flit 498543
Requeued flit 499455
Requeued flit 499446
Requeued flit 500827
Requeued flit 500402
Requeued flit 500668
Requeued flit 500509
Requeued flit 501070
Requeued flit 501122
Requeued flit 501670
Requeued flit 501263
Requeued flit 501203
Requeued flit 502680
Requeued flit 502060
Requeued flit 502763
Requeued flit 502409
Requeued flit 503161
Requeued flit 504564
Requeued flit 504717
Requeued flit 505625
Requeued flit 505611
Requeued flit 505817
Requeued flit 505945
Requeued flit 505657
Requeued flit 506236
Requeued flit 506038
Requeued flit 507334
Requeued flit 508890
Requeued flit 508591
Requeued flit 509829
Requeued flit 510504
Requeued flit 511542
Requeued flit 511624
Requeued flit 512291
Requeued flit 511883
Requeued flit 512114
Requeued flit 512579
Requeued flit 512275
Requeued flit 513033
Requeued flit 513725
Requeued flit 513518
Requeued flit 513419
Requeued flit 514467
Requeued flit 514020
Requeued flit 514466
Requeued flit 515245
Requeued flit 514902
Requeued flit 516608
Requeued flit 517061
Requeued flit 516996
Requeued flit 516872
Requeued flit 518089
Requeued flit 517930
Requeued flit 518091
Requeued flit 519567
Requeued flit 519844
Requeued flit 519802
Requeued flit 520716
Requeued flit 521689
Requeued flit 520346
Requeued flit 521164
Requeued flit 521622
Requeued flit 522054
Requeued flit 521628
Requeued flit 522192
Requeued flit 522663
Requeued flit 524281
Requeued flit 524170
Requeued flit 524743
Requeued flit 526465
Requeued flit 527350
Requeued flit 528051
Requeued flit 526830
Requeued flit 528393
Requeued flit 528885
Requeued flit 529773
Requeued flit 529595
Requeued flit 529816
Requeued flit 531178
Requeued flit 532095
Requeued flit 532828
Requeued flit 532680
Requeued flit 533615
Requeued flit 533860
Requeued flit 536487
Requeued flit 535900
Requeued flit 536192
Requeued flit 537922
Requeued flit 538979
Requeued flit 539139
Requeued flit 539423
Requeued flit 540189
Requeued flit 540725
Requeued flit 540159
Requeued flit 541040
Requeued flit 542132
Requeued flit 542719
Requeued flit 542865
Requeued flit 543149
Requeued flit 543333
Requeued flit 544012
Requeued flit 545480
Requeued flit 546272
Requeued flit 547223
Requeued flit 547195
Requeued flit 547127
Requeued flit 547459
Requeued flit 547477
Requeued flit 547971
Requeued flit 547975
Requeued flit 548489
Requeued flit 549403
Requeued flit 550499
Requeued flit 550782
Requeued flit 551587
Requeued flit 550813
Requeued flit 551858
Requeued flit 552457
Requeued flit 552641
Requeued flit 553461
Requeued flit 554802
Requeued flit 554457
Requeued flit 555379
Requeued flit 555053
Requeued flit 556091
Requeued flit 556775
Requeued flit 556036
Requeued flit 556643
Requeued flit 557705
Requeued flit 557946
Requeued flit 558550
Requeued flit 558904
Requeued flit 559152
Requeued flit 559118
Requeued flit 560216
Requeued flit 560480
Requeued flit 560866
Requeued flit 561259
Requeued flit 561755
Requeued flit 561267
Requeued flit 562581
Requeued flit 562932
Requeued flit 562899
Requeued flit 563213
Requeued flit 563612
Requeued flit 563866
Requeued flit 563166
Requeued flit 564445
Requeued flit 564387
Requeued flit 564689
Requeued flit 565521
Requeued flit 565865
Requeued flit 565595
Requeued flit 566072
Requeued flit 566025
Requeued flit 565237
Requeued flit 566693
Requeued flit 566506
Requeued flit 567397
Requeued flit 567324
Requeued flit 567861
Requeued flit 567407
Requeued flit 569597
Requeued flit 569993
Requeued flit 569814
Requeued flit 569835
Requeued flit 570283
Requeued flit 572789
Requeued flit 572976
Requeued flit 572344
Requeued flit 573706
Class 0:
Packet latency average = 27.1264
	minimum = 5
	maximum = 110
Network latency average = 27.1264
	minimum = 5
	maximum = 110
Slowest packet = 416685
Flit latency average = 27.1264
	minimum = 5
	maximum = 110
Slowest flit = 416685
Fragmentation average = 0
	minimum = 0
	maximum = 0
Injected packet rate average = 0.449673
	minimum = 0.4421 (at node 32)
	maximum = 0.45905 (at node 3)
Accepted packet rate average = 0.449012
	minimum = 0.4402 (at node 25)
	maximum = 0.45945 (at node 39)
Injected flit rate average = 0.449673
	minimum = 0.4421 (at node 32)
	maximum = 0.45905 (at node 3)
Accepted flit rate average= 0.449012
	minimum = 0.4402 (at node 25)
	maximum = 0.45945 (at node 39)
Injected packet length average = 1
Accepted packet length average = 1
Total in-flight flits = 846 (0 measured)
latency change    = 0.00334291
throughput change = 0.00274213
Requeued flit 575069
Requeued flit 575490
Requeued flit 576113
Requeued flit 576401
Requeued flit 576786
Requeued flit 576653
Requeued flit 576928
Requeued flit 577050
Requeued flit 577699
Requeued flit 577627
Requeued flit 579037
Requeued flit 579181
Requeued flit 579561
Requeued flit 580563
Requeued flit 580300
Requeued flit 580781
Requeued flit 581813
Requeued flit 584265
Requeued flit 584534
Requeued flit 585036
Requeued flit 585319
Requeued flit 585492
Requeued flit 585676
Requeued flit 585339
Requeued flit 585638
Requeued flit 585379
Requeued flit 585469
Requeued flit 586126
Requeued flit 586418
Requeued flit 587524
Requeued flit 587562
Requeued flit 588043
Requeued flit 587982
Requeued flit 588342
Requeued flit 588296
Requeued flit 589405
Requeued flit 590993
Requeued flit 590891
Requeued flit 591312
Requeued flit 591176
Requeued flit 593026
Requeued flit 593318
Requeued flit 592956
Requeued flit 593765
Requeued flit 593341
Requeued flit 594105
Requeued flit 593524
Requeued flit 594361
Requeued flit 595930
Requeued flit 595865
Requeued flit 596495
Requeued flit 596275
Requeued flit 596417
Requeued flit 596638
Requeued flit 597005
Requeued flit 596944
Requeued flit 597194
Requeued flit 597718
Requeued flit 597055
Requeued flit 597751
Requeued flit 598376
Requeued flit 598086
Requeued flit 598729
Requeued flit 599291
Requeued flit 600187
Requeued flit 600271
Requeued flit 600244
Requeued flit 600360
Requeued flit 600999
Requeued flit 600450
Requeued flit 601334
Requeued flit 602374
Requeued flit 602642
Requeued flit 603888
Requeued flit 603199
Requeued flit 603602
Requeued flit 604684
Requeued flit 605525
Requeued flit 605811
Requeued flit 605966
Requeued flit 606113
Requeued flit 606492
Requeued flit 606245
Requeued flit 606731
Requeued flit 607290
Requeued flit 607601
Requeued flit 606882
Requeued flit 608122
Requeued flit 608176
Requeued flit 609184
Requeued flit 609978
Requeued flit 609988
Requeued flit 609598
Requeued flit 610399
Requeued flit 610722
Requeued flit 610905
Requeued flit 611087
Requeued flit 611318
Requeued flit 611898
Requeued flit 611863
Requeued flit 613537
Requeued flit 613598
Requeued flit 613888
Requeued flit 614029
Requeued flit 613935
Requeued flit 613971
Requeued flit 614074
Requeued flit 614660
Requeued flit 614249
Requeued flit 614548
Requeued flit 615365
Requeued flit 615372
Requeued flit 616423
Requeued flit 616648
Requeued flit 616154
Requeued flit 617066
Requeued flit 617583
Requeued flit 618792
Requeued flit 618562
Requeued flit 619571
Requeued flit 619781
Requeued flit 620204
Requeued flit 620370
Requeued flit 620967
Requeued flit 621656
Requeued flit 622946
Requeued flit 622170
Requeued flit 622960
Requeued flit 622569
Requeued flit 622318
Requeued flit 623259
Requeued flit 623460
Requeued flit 625238
Requeued flit 625809
Requeued flit 625856
Requeued flit 625541
Requeued flit 626313
Requeued flit 625608
Requeued flit 626513
Requeued flit 625969
Requeued flit 627005
Requeued flit 626463
Requeued flit 626911
Requeued flit 626837
Requeued flit 626123
Requeued flit 627212
Requeued flit 627643
Requeued flit 627379
Requeued flit 627456
Requeued flit 627325
Requeued flit 628070
Requeued flit 628664
Requeued flit 628455
Requeued flit 629628
Requeued flit 630023
Requeued flit 630246
Requeued flit 630765
Requeued flit 631249
Requeued flit 630837
Requeued flit 630983
Requeued flit 631456
Requeued flit 632584
Requeued flit 632477
Requeued flit 632395
Requeued flit 633173
Requeued flit 633360
Requeued flit 633797
Requeued flit 634636
Requeued flit 635479
Requeued flit 635625
Requeued flit 635696
Requeued flit 636336
Requeued flit 636381
Requeued flit 636278
Requeued flit 636932
Requeued flit 636581
Requeued flit 636849
Requeued flit 636607
Requeued flit 637950
Requeued flit 637497
Requeued flit 638030
Requeued flit 638879
Requeued flit 638821
Requeued flit 639592
Requeued flit 639694
Requeued flit 642203
Requeued flit 642374
Requeued flit 642582
Requeued flit 642885
Requeued flit 643461
Requeued flit 643516
Requeued flit 645163
Requeued flit 645336
Requeued flit 645716
Requeued flit 646724
Requeued flit 647091
Requeued flit 647288
Requeued flit 647823
Requeued flit 648757
Requeued flit 648778
Requeued flit 648023
Requeued flit 649266
Requeued flit 649053
Requeued flit 649807
Requeued flit 650236
Requeued flit 650091
Requeued flit 650497
Requeued flit 650909
Requeued flit 650087
Requeued flit 651069
Requeued flit 651450
Requeued flit 651839
Requeued flit 652098
Requeued flit 651389
Requeued flit 652193
Requeued flit 652684
Requeued flit 653229
Requeued flit 654023
Requeued flit 653875
Requeued flit 655555
Requeued flit 655695
Requeued flit 655452
Requeued flit 655493
Requeued flit 656161
Requeued flit 656065
Requeued flit 655799
Requeued flit 655964
Requeued flit 656110
Requeued flit 656817
Requeued flit 657009
Requeued flit 657304
Requeued flit 657964
Requeued flit 659503
Requeued flit 659644
Requeued flit 659552
Requeued flit 659529
Requeued flit 660375
Requeued flit 659893
Requeued flit 660537
Requeued flit 660242
Requeued flit 660279
Requeued flit 660147
Requeued flit 660366
Requeued flit 660438
Requeued flit 661076
Requeued flit 660516
Requeued flit 661791
Requeued flit 662747
Requeued flit 663235
Requeued flit 662417
Requeued flit 663725
Requeued flit 664368
Requeued flit 664331
Requeued flit 665527
Requeued flit 666085
Requeued flit 666827
Requeued flit 668047
Requeued flit 667896
Requeued flit 669471
Requeued flit 669492
Requeued flit 668802
Requeued flit 669620
Requeued flit 670374
Requeued flit 670800
Requeued flit 670106
Requeued flit 671558
Requeued flit 671355
Requeued flit 671488
Requeued flit 672131
Requeued flit 671647
Requeued flit 672330
Requeued flit 672997
Requeued flit 673683
Requeued flit 674564
Requeued flit 674408
Requeued flit 675708
Requeued flit 676199
Requeued flit 676193
Requeued flit 675838
Requeued flit 676690
Requeued flit 677688
Requeued flit 677765
Requeued flit 677684
Requeued flit 679101
Requeued flit 678723
Requeued flit 678820
Requeued flit 678511
Requeued flit 679071
Requeued flit 679077
Requeued flit 679048
Requeued flit 679480
Requeued flit 679352
Requeued flit 680043
Requeued flit 679718
Requeued flit 679965
Requeued flit 681717
Requeued flit 682106
Requeued flit 682388
Requeued flit 681010
Requeued flit 682544
Requeued flit 683422
Requeued flit 683993
Requeued flit 684356
Requeued flit 684234
Requeued flit 684979
Requeued flit 685626
Requeued flit 686582
Requeued flit 686301
Requeued flit 687304
Requeued flit 687140
Requeued flit 687796
Requeued flit 687637
Requeued flit 688489
Requeued flit 688785
Requeued flit 689661
Requeued flit 690460
Requeued flit 690814
Requeued flit 691425
Requeued flit 691363
Requeued flit 691994
Requeued flit 691592
Requeued flit 692163
Requeued flit 692498
Requeued flit 692289
Requeued flit 693019
Requeued flit 692698
Requeued flit 693602
Requeued flit 694740
Requeued flit 694360
Requeued flit 694125
Requeued flit 693850
Requeued flit 694689
Requeued flit 695678
Requeued flit 695484
Requeued flit 696333
Requeued flit 696436
Requeued flit 697315
Requeued flit 697325
Requeued flit 698137
Requeued flit 698699
Requeued flit 699541
Requeued flit 699562
Requeued flit 700556
Requeued flit 700601
Requeued flit 699920
Requeued flit 700111
Requeued flit 700696
Requeued flit 700918
Requeued flit 700464
Requeued flit 700346
Requeued flit 700087
Requeued flit 701587
Requeued flit 700085
Requeued flit 700751
Requeued flit 703207
Requeued flit 703223
Requeued flit 704145
Requeued flit 703696
Requeued flit 704555
Requeued flit 704013
Requeued flit 704813
Requeued flit 705197
Requeued flit 705630
Requeued flit 706033
Requeued flit 706436
Requeued flit 706569
Requeued flit 707103
Requeued flit 706982
Requeued flit 706593
Requeued flit 707320
Requeued flit 707427
Requeued flit 707682
Requeued flit 709271
Requeued flit 710208
Requeued flit 710161
Requeued flit 710587
Requeued flit 711294
Requeued flit 712770
Requeued flit 713005
Requeued flit 713146
Requeued flit 713744
Requeued flit 713381
Requeued flit 713924
Requeued flit 714209
Requeued flit 714221
Requeued flit 713892
Requeued flit 713707
Requeued flit 714926
Requeued flit 714635
Requeued flit 715153
Requeued flit 714692
Requeued flit 715454
Requeued flit 715426
Requeued flit 715687
Requeued flit 716909
Requeued flit 718190
Requeued flit 718176
Requeued flit 718203
Requeued flit 719063
Requeued flit 719060
Requeued flit 718313
Requeued flit 718386
Requeued flit 719420
Requeued flit 719726
Requeued flit 719277
Requeued flit 719993
Requeued flit 720055
Requeued flit 719951
Requeued flit 721878
Requeued flit 722572
Requeued flit 722567
Requeued flit 723017
Requeued flit 723273
Requeued flit 723988
Requeued flit 724618
Requeued flit 724685
Requeued flit 725578
Requeued flit 728066
Requeued flit 728203
Requeued flit 727799
Requeued flit 728506
Requeued flit 728220
Requeued flit 728779
Requeued flit 728824
Requeued flit 729154
Requeued flit 729375
Requeued flit 730114
Requeued flit 730160
Requeued flit 730701
Requeued flit 730896
Requeued flit 732379
Requeued flit 733468
Requeued flit 734257
Requeued flit 733790
Requeued flit 733841
Requeued flit 734593
Requeued flit 735462
Requeued flit 735442
Requeued flit 735687
Requeued flit 736562
Requeued flit 735812
Requeued flit 736406
Requeued flit 737126
Requeued flit 736800
Requeued flit 735704
Requeued flit 737464
Requeued flit 737720
Requeued flit 739698
Requeued flit 740157
Requeued flit 739507
Requeued flit 739417
Requeued flit 740419
Requeued flit 740413
Requeued flit 741571
Requeued flit 742159
Requeued flit 742027
Requeued flit 742194
Requeued flit 742502
Requeued flit 743456
Requeued flit 744145
Requeued flit 744009
Requeued flit 744343
Requeued flit 746131
Requeued flit 748094
Requeued flit 748428
Requeued flit 748161
Requeued flit 748859
Requeued flit 748701
Requeued flit 749820
Requeued flit 750464
Requeued flit 751139
Requeued flit 751348
Requeued flit 751718
Requeued flit 752388
Requeued flit 751937
Requeued flit 752548
Requeued flit 752880
Requeued flit 753201
Requeued flit 753642
Requeued flit 752973
Requeued flit 754511
Requeued flit 753782
Requeued flit 754081
Requeued flit 755487
Requeued flit 756557
Requeued flit 756216
Requeued flit 756267
Requeued flit 757203
Requeued flit 757691
Requeued flit 757906
Requeued flit 757919
Requeued flit 759007
Requeued flit 759546
Requeued flit 760786
Requeued flit 760010
Requeued flit 762195
Requeued flit 762337
Requeued flit 763248
Requeued flit 764245
Requeued flit 764767
Requeued flit 765297
Requeued flit 764454
Requeued flit 768664
Requeued flit 769338
Requeued flit 769264
Requeued flit 768659
Requeued flit 769475
Requeued flit 770595
Requeued flit 770668
Requeued flit 771970
Requeued flit 771732
Requeued flit 771729
Requeued flit 772955
Requeued flit 773031
Requeued flit 773237
Requeued flit 773341
Requeued flit 773556
Requeued flit 774330
Requeued flit 775119
Requeued flit 774958
Requeued flit 775539
Requeued flit 775851
Requeued flit 775629
Requeued flit 775893
Requeued flit 776789
Requeued flit 777353
Requeued flit 777580
Requeued flit 778203
Requeued flit 778851
Requeued flit 779094
Requeued flit 779383
Requeued flit 780111
Requeued flit 780165
Requeued flit 780295
Requeued flit 780899
Requeued flit 781525
Requeued flit 781238
Requeued flit 781648
Requeued flit 781887
Requeued flit 781788
Requeued flit 782623
Requeued flit 783521
Requeued flit 783916
Requeued flit 783568
Requeued flit 785155
Requeued flit 784936
Requeued flit 785784
Requeued flit 786108
Requeued flit 785932
Requeued flit 785695
Requeued flit 787085
Requeued flit 787094
Requeued flit 787147
Requeued flit 786772
Requeued flit 787045
Requeued flit 787054
Requeued flit 787902
Requeued flit 787210
Requeued flit 787198
Requeued flit 788623
Requeued flit 789157
Requeued flit 788789
Requeued flit 789992
Requeued flit 790625
Requeued flit 790043
Requeued flit 791185
Requeued flit 790628
Requeued flit 791529
Requeued flit 791054
Requeued flit 791809
Requeued flit 791557
Requeued flit 792064
Requeued flit 791935
Requeued flit 792325
Requeued flit 792067
Requeued flit 793475
Requeued flit 793581
Requeued flit 793934
Requeued flit 794162
Requeued flit 794103
Requeued flit 794769
Requeued flit 794763
Requeued flit 795967
Requeued flit 797311
Requeued flit 798274
Requeued flit 796888
Requeued flit 798221
Requeued flit 798128
Requeued flit 798476
Requeued flit 800389
Requeued flit 800009
Requeued flit 800355
Requeued flit 801148
Requeued flit 802090
Requeued flit 802964
Requeued flit 803070
Requeued flit 803898
Requeued flit 804596
Requeued flit 804678
Requeued flit 805276
Requeued flit 804260
Requeued flit 805533
Requeued flit 805758
Requeued flit 805777
Requeued flit 807190
Requeued flit 807235
Requeued flit 807115
Requeued flit 806709
Requeued flit 807307
Requeued flit 807118
Requeued flit 807854
Requeued flit 808529
Requeued flit 808951
Requeued flit 809147
Requeued flit 809758
Requeued flit 810071
Requeued flit 811499
Requeued flit 811318
Requeued flit 811615
Requeued flit 811894
Requeued flit 812959
Requeued flit 813106
Requeued flit 813471
Requeued flit 813170
Requeued flit 814805
Requeued flit 813825
Requeued flit 815844
Requeued flit 815803
Requeued flit 817826
Requeued flit 817759
Requeued flit 817398
Requeued flit 817706
Requeued flit 818265
Requeued flit 818047
Requeued flit 818419
Requeued flit 818855
Requeued flit 819074
Requeued flit 820275
Requeued flit 820326
Requeued flit 821116
Requeued flit 821069
Requeued flit 821337
Requeued flit 821394
Requeued flit 821162
Requeued flit 822323
Requeued flit 822154
Requeued flit 821962
Requeued flit 823266
Requeued flit 823953
Requeued flit 823887
Requeued flit 824196
Requeued flit 825126
Requeued flit 824675
Requeued flit 824601
Requeued flit 825536
Requeued flit 826153
Requeued flit 826852
Requeued flit 826996
Requeued flit 827175
Requeued flit 827281
Requeued flit 829247
Requeued flit 828738
Requeued flit 829179
Requeued flit 830705
Requeued flit 830051
Requeued flit 830793
Requeued flit 830862
Requeued flit 832230
Requeued flit 832505
Requeued flit 832689
Requeued flit 832439
Requeued flit 833191
Requeued flit 833291
Requeued flit 833544
Requeued flit 834595
Requeued flit 834180
Requeued flit 834726
Requeued flit 834773
Requeued flit 833808
Requeued flit 836164
Requeued flit 835794
Requeued flit 836785
Requeued flit 838270
Requeued flit 838396
Requeued flit 839148
Requeued flit 841535
Requeued flit 841881
Requeued flit 841742
Requeued flit 842233
Requeued flit 842469
Requeued flit 842131
Requeued flit 843307
Requeued flit 843302
Requeued flit 843363
Requeued flit 843553
Requeued flit 844066
Requeued flit 844832
Requeued flit 844283
Requeued flit 845564
Requeued flit 845316
Requeued flit 846428
Requeued flit 845725
Requeued flit 847064
Requeued flit 846794
Requeued flit 847018
Requeued flit 847337
Requeued flit 848652
Requeued flit 848627
Requeued flit 848708
Requeued flit 848904
Requeued flit 850095
Requeued flit 851324
Requeued flit 852398
Requeued flit 852619
Requeued flit 851782
Requeued flit 853124
Requeued flit 852270
Requeued flit 853495
Requeued flit 854291
Requeued flit 854256
Requeued flit 854751
Requeued flit 854734
Requeued flit 856180
Requeued flit 856269
Requeued flit 857566
Requeued flit 858253
Requeued flit 858227
Requeued flit 860494
Requeued flit 860198
Requeued flit 860493
Requeued flit 859674
Requeued flit 859885
Requeued flit 860186
Requeued flit 860876
Requeued flit 861779
Requeued flit 863039
Requeued flit 862753
Requeued flit 862856
Requeued flit 863247
Class 0:
Packet latency average = 27.3596
	minimum = 5
	maximum = 100
Network latency average = 27.3596
	minimum = 5
	maximum = 100
Slowest packet = 725931
Flit latency average = 27.3596
	minimum = 5
	maximum = 100
Slowest flit = 725931
Fragmentation average = 0
	minimum = 0
	maximum = 0
Injected packet rate average = 0.450681
	minimum = 0.4394 (at node 62)
	maximum = 0.4619 (at node 54)
Accepted packet rate average = 0.450813
	minimum = 0.4306 (at node 62)
	maximum = 0.4609 (at node 37)
Injected flit rate average = 0.450681
	minimum = 0.4394 (at node 62)
	maximum = 0.4619 (at node 54)
Accepted flit rate average= 0.450813
	minimum = 0.4306 (at node 62)
	maximum = 0.4609 (at node 37)
Injected packet length average = 1
Accepted packet length average = 1
Total in-flight flits = 762 (0 measured)
latency change    = 0.00852246
throughput change = 0.00399279
Warmed up ...Time used is 30000 cycles
Requeued flit 863762
Requeued flit 865333
Requeued flit 864675
Requeued flit 866143
Requeued flit 866109
Requeued flit 866089
Requeued flit 866164
Requeued flit 866755
Requeued flit 866440
Requeued flit 867097
Requeued flit 866641
Requeued flit 867113
Requeued flit 867106
Requeued flit 868501
Requeued flit 868213
Requeued flit 868684
Requeued flit 869715
Requeued flit 869565
Requeued flit 870023
Requeued flit 870164
Requeued flit 870904
Requeued flit 871882
Requeued flit 871775
Requeued flit 873104
Requeued flit 873048
Requeued flit 873219
Requeued flit 873984
Requeued flit 874792
Requeued flit 873677
Requeued flit 874386
Requeued flit 875556
Requeued flit 875751
Requeued flit 875586
Requeued flit 876031
Requeued flit 876453
Requeued flit 876677
Requeued flit 876287
Requeued flit 876771
Requeued flit 877300
Requeued flit 877329
Requeued flit 878457
Requeued flit 877947
Requeued flit 878431
Requeued flit 877895
Requeued flit 878146
Requeued flit 878373
Requeued flit 879385
Requeued flit 879855
Requeued flit 879863
Requeued flit 881219
Requeued flit 880901
Requeued flit 880777
Requeued flit 881141
Requeued flit 881394
Requeued flit 881327
Requeued flit 881784
Requeued flit 882067
Requeued flit 882990
Requeued flit 883191
Requeued flit 882568
Requeued flit 883100
Requeued flit 883224
Requeued flit 883481
Requeued flit 883276
Requeued flit 883745
Requeued flit 884203
Requeued flit 883476
Requeued flit 884484
Requeued flit 885200
Requeued flit 884831
Requeued flit 886334
Requeued flit 886122
Requeued flit 886320
Requeued flit 886982
Requeued flit 887765
Requeued flit 888263
Requeued flit 888051
Requeued flit 887935
Requeued flit 888182
Requeued flit 888169
Requeued flit 888309
Requeued flit 889025
Requeued flit 889751
Requeued flit 889902
Requeued flit 890128
Requeued flit 889638
Requeued flit 890284
Requeued flit 889412
Requeued flit 889819
Requeued flit 890431
Requeued flit 890345
Requeued flit 890331
Requeued flit 891993
Requeued flit 892041
Requeued flit 892517
Requeued flit 892111
Requeued flit 892626
Requeued flit 894379
Requeued flit 895190
Requeued flit 895472
Requeued flit 896031
Requeued flit 895983
Requeued flit 895885
Requeued flit 896413
Requeued flit 896628
Requeued flit 897036
Requeued flit 896959
Requeued flit 897755
Requeued flit 898717
Requeued flit 898983
Requeued flit 898944
Requeued flit 899704
Requeued flit 901526
Requeued flit 900805
Requeued flit 901801
Requeued flit 902121
Requeued flit 902378
Requeued flit 902565
Requeued flit 902803
Requeued flit 902089
Requeued flit 903621
Requeued flit 903284
Requeued flit 903742
Requeued flit 905645
Requeued flit 905759
Requeued flit 907089
Requeued flit 906710
Requeued flit 907598
Requeued flit 907667
Requeued flit 908009
Requeued flit 908687
Requeued flit 908750
Requeued flit 909453
Requeued flit 909948
Requeued flit 912024
Requeued flit 912442
Requeued flit 912793
Requeued flit 912711
Requeued flit 913059
Requeued flit 913337
Requeued flit 913275
Requeued flit 913779
Requeued flit 916087
Requeued flit 916235
Requeued flit 916074
Requeued flit 916801
Requeued flit 917505
Requeued flit 917693
Requeued flit 918231
Requeued flit 918061
Requeued flit 918550
Requeued flit 918870
Requeued flit 918742
Requeued flit 920098
Requeued flit 919473
Requeued flit 919861
Requeued flit 920097
Requeued flit 920317
Requeued flit 920979
Requeued flit 920332
Requeued flit 921758
Requeued flit 922099
Requeued flit 922696
Requeued flit 923074
Requeued flit 923560
Requeued flit 923719
Requeued flit 924925
Requeued flit 925458
Requeued flit 925985
Requeued flit 926057
Requeued flit 926540
Requeued flit 927011
Requeued flit 926381
Requeued flit 926977
Requeued flit 928169
Requeued flit 928318
Requeued flit 928657
Requeued flit 929715
Requeued flit 931148
Requeued flit 931519
Requeued flit 932345
Requeued flit 932401
Requeued flit 932939
Requeued flit 932848
Requeued flit 932594
Requeued flit 933607
Requeued flit 933486
Requeued flit 933219
Requeued flit 933808
Requeued flit 933475
Requeued flit 933893
Requeued flit 934301
Requeued flit 934782
Requeued flit 935086
Requeued flit 935379
Requeued flit 934203
Requeued flit 935014
Requeued flit 934721
Requeued flit 936635
Requeued flit 937401
Requeued flit 937810
Requeued flit 937288
Requeued flit 938756
Requeued flit 938599
Requeued flit 939302
Requeued flit 939779
Requeued flit 939898
Requeued flit 940121
Requeued flit 941471
Requeued flit 941185
Requeued flit 941811
Requeued flit 942658
Requeued flit 945101
Requeued flit 945045
Requeued flit 944863
Requeued flit 945788
Requeued flit 946957
Requeued flit 947808
Requeued flit 947368
Requeued flit 947888
Requeued flit 949058
Requeued flit 949324
Requeued flit 949872
Requeued flit 950070
Requeued flit 950349
Requeued flit 949832
Requeued flit 950982
Requeued flit 951152
Requeued flit 952027
Requeued flit 951586
Requeued flit 952444
Requeued flit 952685
Requeued flit 953074
Requeued flit 952630
Requeued flit 953622
Requeued flit 955308
Requeued flit 954980
Requeued flit 955577
Requeued flit 956262
Requeued flit 954927
Requeued flit 955797
Requeued flit 957132
Requeued flit 957830
Requeued flit 957391
Requeued flit 957835
Requeued flit 958742
Requeued flit 958488
Requeued flit 959801
Requeued flit 959673
Requeued flit 960950
Requeued flit 961239
Requeued flit 963620
Requeued flit 964946
Requeued flit 965614
Requeued flit 966532
Requeued flit 967960
Requeued flit 967924
Requeued flit 969063
Requeued flit 968700
Requeued flit 970027
Requeued flit 969514
Requeued flit 970707
Requeued flit 971517
Requeued flit 971040
Requeued flit 971462
Requeued flit 974020
Requeued flit 973924
Requeued flit 974943
Requeued flit 974259
Requeued flit 974910
Requeued flit 976706
Requeued flit 977141
Requeued flit 977026
Requeued flit 978345
Requeued flit 978750
Requeued flit 979982
Requeued flit 980102
Requeued flit 980540
Requeued flit 979987
Requeued flit 980465
Requeued flit 980927
Requeued flit 980792
Requeued flit 981844
Requeued flit 981224
Requeued flit 982030
Requeued flit 982494
Requeued flit 982285
Requeued flit 982620
Requeued flit 983173
Requeued flit 983112
Requeued flit 984209
Requeued flit 985215
Requeued flit 985677
Requeued flit 986051
Requeued flit 985681
Requeued flit 985490
Requeued flit 986332
Requeued flit 987733
Requeued flit 988022
Requeued flit 988297
Requeued flit 989141
Requeued flit 989799
Requeued flit 989235
Requeued flit 990232
Requeued flit 991037
Requeued flit 991487
Requeued flit 994624
Requeued flit 994719
Requeued flit 995373
Requeued flit 996375
Requeued flit 995565
Requeued flit 995736
Requeued flit 996179
Requeued flit 996695
Requeued flit 997091
Requeued flit 997031
Requeued flit 997927
Requeued flit 998609
Requeued flit 998470
Requeued flit 999230
Requeued flit 998656
Requeued flit 998130
Requeued flit 999469
Requeued flit 1000886
Requeued flit 1002036
Requeued flit 1001401
Requeued flit 1001282
Requeued flit 1001783
Requeued flit 1002923
Requeued flit 1003452
Requeued flit 1004581
Requeued flit 1005027
Requeued flit 1005320
Requeued flit 1005978
Requeued flit 1005517
Requeued flit 1005774
Requeued flit 1006575
Requeued flit 1007587
Requeued flit 1008048
Requeued flit 1008807
Requeued flit 1008840
Requeued flit 1008789
Requeued flit 1008544
Requeued flit 1009876
Requeued flit 1010683
Requeued flit 1010182
Requeued flit 1010768
Requeued flit 1011338
Requeued flit 1011224
Requeued flit 1010583
Requeued flit 1011856
Requeued flit 1011994
Requeued flit 1011894
Requeued flit 1011726
Requeued flit 1013108
Requeued flit 1012553
Requeued flit 1013410
Requeued flit 1013398
Requeued flit 1013205
Requeued flit 1013686
Requeued flit 1014008
Requeued flit 1012704
Requeued flit 1014704
Requeued flit 1015007
Requeued flit 1015209
Requeued flit 1015589
Requeued flit 1015936
Requeued flit 1016394
Requeued flit 1016432
Requeued flit 1016670
Requeued flit 1017547
Requeued flit 1017283
Requeued flit 1017762
Requeued flit 1018265
Requeued flit 1018222
Requeued flit 1019154
Requeued flit 1019495
Requeued flit 1019892
Requeued flit 1020568
Requeued flit 1020990
Requeued flit 1021342
Requeued flit 1022341
Requeued flit 1022311
Requeued flit 1022830
Requeued flit 1023414
Requeued flit 1024124
Requeued flit 1024036
Requeued flit 1024040
Requeued flit 1024066
Requeued flit 1024413
Requeued flit 1024479
Requeued flit 1024221
Requeued flit 1026106
Requeued flit 1026829
Requeued flit 1026508
Requeued flit 1026456
Requeued flit 1027683
Requeued flit 1027727
Requeued flit 1028135
Requeued flit 1028715
Requeued flit 1029041
Requeued flit 1029013
Requeued flit 1029958
Requeued flit 1029477
Requeued flit 1030439
Requeued flit 1029865
Requeued flit 1030697
Requeued flit 1031344
Requeued flit 1031915
Requeued flit 1033559
Requeued flit 1034567
Requeued flit 1034512
Requeued flit 1033870
Requeued flit 1035299
Requeued flit 1034424
Requeued flit 1034668
Requeued flit 1035830
Requeued flit 1037152
Requeued flit 1037376
Requeued flit 1038349
Requeued flit 1038410
Requeued flit 1038648
Requeued flit 1039863
Requeued flit 1039795
Requeued flit 1040749
Requeued flit 1040985
Requeued flit 1041249
Requeued flit 1041891
Requeued flit 1043135
Requeued flit 1043030
Requeued flit 1044034
Requeued flit 1043516
Requeued flit 1044484
Requeued flit 1043932
Requeued flit 1044381
Requeued flit 1045698
Requeued flit 1046258
Requeued flit 1045545
Requeued flit 1046760
Requeued flit 1047785
Requeued flit 1048326
Requeued flit 1048867
Requeued flit 1050414
Requeued flit 1050550
Requeued flit 1050408
Requeued flit 1050747
Requeued flit 1051613
Requeued flit 1052144
Requeued flit 1052654
Requeued flit 1052960
Requeued flit 1053891
Requeued flit 1054674
Requeued flit 1054179
Requeued flit 1056779
Requeued flit 1056816
Requeued flit 1057256
Requeued flit 1056724
Requeued flit 1057033
Requeued flit 1057983
Requeued flit 1057987
Requeued flit 1058656
Requeued flit 1058987
Requeued flit 1059215
Requeued flit 1059617
Requeued flit 1059886
Requeued flit 1061485
Requeued flit 1061431
Requeued flit 1060162
Requeued flit 1061361
Requeued flit 1061738
Requeued flit 1062235
Requeued flit 1062188
Requeued flit 1061842
Requeued flit 1062412
Requeued flit 1062536
Requeued flit 1062843
Requeued flit 1063899
Requeued flit 1066016
Requeued flit 1065324
Requeued flit 1065912
Requeued flit 1066755
Requeued flit 1066410
Requeued flit 1067100
Requeued flit 1067613
Requeued flit 1067624
Requeued flit 1068252
Requeued flit 1068807
Requeued flit 1068657
Requeued flit 1068052
Requeued flit 1068852
Requeued flit 1068739
Requeued flit 1069583
Requeued flit 1070888
Requeued flit 1071772
Requeued flit 1070979
Requeued flit 1071968
Requeued flit 1072482
Requeued flit 1073047
Requeued flit 1072947
Requeued flit 1073910
Requeued flit 1074083
Requeued flit 1074631
Requeued flit 1074134
Requeued flit 1076497
Requeued flit 1076228
Requeued flit 1077071
Requeued flit 1076857
Requeued flit 1078074
Requeued flit 1079134
Requeued flit 1079377
Requeued flit 1080307
Requeued flit 1080858
Requeued flit 1081149
Requeued flit 1082702
Requeued flit 1083021
Requeued flit 1082777
Requeued flit 1083825
Requeued flit 1082841
Requeued flit 1084329
Requeued flit 1084889
Requeued flit 1084755
Requeued flit 1085057
Requeued flit 1086176
Requeued flit 1086307
Requeued flit 1086545
Requeued flit 1086233
Requeued flit 1086322
Requeued flit 1087931
Requeued flit 1088105
Requeued flit 1088523
Requeued flit 1091621
Requeued flit 1091264
Requeued flit 1091684
Requeued flit 1092285
Requeued flit 1092485
Requeued flit 1092664
Requeued flit 1093321
Requeued flit 1093744
Requeued flit 1093705
Requeued flit 1094148
Requeued flit 1093944
Requeued flit 1094616
Requeued flit 1093964
Requeued flit 1095300
Requeued flit 1095637
Requeued flit 1096618
Requeued flit 1096323
Requeued flit 1096909
Requeued flit 1096432
Requeued flit 1097866
Requeued flit 1098804
Requeued flit 1098497
Requeued flit 1098459
Requeued flit 1099232
Requeued flit 1099453
Requeued flit 1098837
Requeued flit 1099655
Requeued flit 1100164
Requeued flit 1100057
Requeued flit 1099611
Requeued flit 1100438
Requeued flit 1101608
Requeued flit 1102260
Requeued flit 1101921
Requeued flit 1103194
Requeued flit 1102073
Requeued flit 1103787
Requeued flit 1104193
Requeued flit 1104537
Requeued flit 1105112
Requeued flit 1105483
Requeued flit 1105770
Requeued flit 1106255
Requeued flit 1106331
Requeued flit 1106273
Requeued flit 1107229
Requeued flit 1107656
Requeued flit 1108628
Requeued flit 1109731
Requeued flit 1109478
Requeued flit 1109440
Requeued flit 1110302
Requeued flit 1110166
Requeued flit 1110223
Requeued flit 1110545
Requeued flit 1111103
Requeued flit 1111866
Requeued flit 1112715
Requeued flit 1112590
Requeued flit 1112348
Requeued flit 1112358
Requeued flit 1112699
Requeued flit 1112838
Requeued flit 1113592
Requeued flit 1113163
Requeued flit 1114361
Requeued flit 1114760
Requeued flit 1114764
Requeued flit 1115201
Requeued flit 1115638
Requeued flit 1115413
Requeued flit 1114333
Requeued flit 1116320
Requeued flit 1116504
Requeued flit 1116299
Requeued flit 1116808
Requeued flit 1117506
Requeued flit 1117136
Requeued flit 1117178
Requeued flit 1117612
Requeued flit 1118528
Requeued flit 1118920
Requeued flit 1118218
Requeued flit 1120200
Requeued flit 1120317
Requeued flit 1120303
Requeued flit 1119770
Requeued flit 1120589
Requeued flit 1120525
Requeued flit 1120813
Requeued flit 1121481
Requeued flit 1121284
Requeued flit 1122699
Requeued flit 1123563
Requeued flit 1123885
Requeued flit 1123513
Requeued flit 1124913
Requeued flit 1124895
Requeued flit 1125143
Requeued flit 1126456
Requeued flit 1127005
Requeued flit 1127513
Requeued flit 1127826
Requeued flit 1127800
Requeued flit 1127688
Requeued flit 1128526
Requeued flit 1128357
Requeued flit 1128828
Requeued flit 1130196
Requeued flit 1129938
Requeued flit 1130957
Requeued flit 1130042
Requeued flit 1131091
Requeued flit 1132126
Requeued flit 1132048
Requeued flit 1132004
Requeued flit 1132631
Requeued flit 1133656
Requeued flit 1134012
Requeued flit 1134803
Requeued flit 1135264
Requeued flit 1135892
Requeued flit 1136516
Requeued flit 1136220
Requeued flit 1137030
Requeued flit 1136874
Requeued flit 1136866
Requeued flit 1136523
Requeued flit 1137584
Requeued flit 1137454
Requeued flit 1137022
Requeued flit 1137311
Requeued flit 1137595
Requeued flit 1138225
Requeued flit 1138898
Requeued flit 1138727
Requeued flit 1138280
Requeued flit 1140461
Requeued flit 1140906
Requeued flit 1141663
Requeued flit 1141346
Requeued flit 1143176
Requeued flit 1143438
Requeued flit 1142864
Requeued flit 1143372
Requeued flit 1143859
Requeued flit 1142960
Requeued flit 1143738
Requeued flit 1143438
Requeued flit 1144294
Requeued flit 1143552
Requeued flit 1144611
Requeued flit 1144377
Requeued flit 1145206
Requeued flit 1144835
Requeued flit 1145742
Requeued flit 1146498
Requeued flit 1147742
Requeued flit 1147590
Requeued flit 1147646
Requeued flit 1148016
Requeued flit 1147814
Requeued flit 1148476
Requeued flit 1148153
Requeued flit 1149116
Requeued flit 1148972
Requeued flit 1149785
Requeued flit 1150140
Requeued flit 1150363
Requeued flit 1150331
Requeued flit 1150513
Class 0:
Packet latency average = 27.2017
	minimum = 5
	maximum = 103
Network latency average = 27.2017
	minimum = 5
	maximum = 103
Slowest packet = 1011726
Flit latency average = 27.2151
	minimum = 5
	maximum = 103
Slowest flit = 1011726
Fragmentation average = 0
	minimum = 0
	maximum = 0
Injected packet rate average = 0.449748
	minimum = 0.4408 (at node 17)
	maximum = 0.4592 (at node 39)
Accepted packet rate average = 0.449858
	minimum = 0.4333 (at node 14)
	maximum = 0.4684 (at node 63)
Injected flit rate average = 0.449748
	minimum = 0.4408 (at node 17)
	maximum = 0.4592 (at node 39)
Accepted flit rate average= 0.449858
	minimum = 0.4333 (at node 14)
	maximum = 0.4684 (at node 63)
Injected packet length average = 1
Accepted packet length average = 1
Total in-flight flits = 692 (692 measured)
latency change    = 0.0058022
throughput change = 0.0021222
Requeued flit 1151317
Requeued flit 1151800
Requeued flit 1152185
Requeued flit 1152361
Requeued flit 1152657
Requeued flit 1153146
Requeued flit 1153328
Requeued flit 1153029
Requeued flit 1153738
Requeued flit 1154808
Requeued flit 1154562
Requeued flit 1155555
Requeued flit 1155691
Requeued flit 1156908
Requeued flit 1157056
Requeued flit 1158131
Requeued flit 1158888
Requeued flit 1158749
Requeued flit 1158804
Requeued flit 1158396
Requeued flit 1159369
Requeued flit 1160680
Requeued flit 1162188
Requeued flit 1162358
Requeued flit 1162294
Requeued flit 1162348
Requeued flit 1162047
Requeued flit 1163576
Requeued flit 1163136
Requeued flit 1163688
Requeued flit 1163268
Requeued flit 1163703
Requeued flit 1164513
[...]
	maximum = 0.46115 (at node 0)
Injected packet length average = 1
Accepted packet length average = 1
Total in-flight flits = 721 (721 measured)
latency change    = 0.00145527
throughput change = 5.73065e-05
Requeued flit 1440173
Requeued flit 1440424
Requeued flit 1440804
Requeued flit 1442147
Requeued flit 1442551
Requeued flit 1442455
Requeued flit 1442709
Requeued flit 1444051
Requeued flit 1443940
Requeued flit 1444594
Requeued flit 1444244
Requeued flit 1444683
Requeued flit 1445596
Requeued flit 1446639
Requeued flit 1447331
Requeued flit 1447928
Requeued flit 1447111
Requeued flit 1447767
Requeued flit 1448609
Requeued flit 1448068
Requeued flit 1448548
Requeued flit 1448719
Requeued flit 1450278
Requeued flit 1450163
Requeued flit 1450857
Requeued flit 1450785
Requeued flit 1451106
Requeued flit 1451326
Requeued flit 1451742
Requeued flit 1452179
Requeued flit 1452134
Requeued flit 1454415
Requeued flit 1454326
Requeued flit 1454798
Requeued flit 1455528
Requeued flit 1455483
Requeued flit 1455616
Requeued flit 1455500
Requeued flit 1456730
Requeued flit 1456970
Requeued flit 1458077
Requeued flit 1459175
Requeued flit 1458926
Requeued flit 1460368
Requeued flit 1460112
Requeued flit 1461247
Requeued flit 1461509
Requeued flit 1460818
Requeued flit 1461870
Requeued flit 1461934
Requeued flit 1462689
Requeued flit 1462816
Requeued flit 1464069
Requeued flit 1464030
Requeued flit 1464352
Requeued flit 1465079
Requeued flit 1465631
Requeued flit 1465902
Requeued flit 1466474
Requeued flit 1466338
Requeued flit 1466921
Requeued flit 1467412
Requeued flit 1467576
Requeued flit 1467574
Requeued flit 1468638
Requeued flit 1469428
Requeued flit 1469610
Requeued flit 1469084
Requeued flit 1470442
Requeued flit 1471346
Requeued flit 1471294
Requeued flit 1472347
Requeued flit 1472647
Requeued flit 1472815
Requeued flit 1472721
Requeued flit 1472953
Requeued flit 1473271
Requeued flit 1473749
Requeued flit 1474910
Requeued flit 1475565
Requeued flit 1475143
Requeued flit 1475784
Requeued flit 1475859
Requeued flit 1475706
Requeued flit 1476298
Requeued flit 1476839
Requeued flit 1476805
Requeued flit 1477865
Requeued flit 1478491
Requeued flit 1478925
Requeued flit 1479218
Requeued flit 1479090
Requeued flit 1479686
Requeued flit 1479900
Requeued flit 1480508
Requeued flit 1480716
Requeued flit 1481587
Requeued flit 1481419
Requeued flit 1482430
Requeued flit 1483077
Requeued flit 1483782
Requeued flit 1482749
Requeued flit 1483419
Requeued flit 1485145
Requeued flit 1486870
Requeued flit 1488135
Requeued flit 1488296
Requeued flit 1490096
Requeued flit 1490655
Requeued flit 1491107
Requeued flit 1491279
Requeued flit 1491940
Requeued flit 1492060
Requeued flit 1492959
Requeued flit 1493605
Requeued flit 1493434
Requeued flit 1493855
Requeued flit 1494476
Requeued flit 1494626
Requeued flit 1494172
Requeued flit 1495653
Requeued flit 1496556
Requeued flit 1496767
Requeued flit 1497505
Requeued flit 1497060
Requeued flit 1497670
Requeued flit 1498773
Requeued flit 1498266
Requeued flit 1498637
Requeued flit 1498507
Requeued flit 1499665
Requeued flit 1499627
Requeued flit 1500089
Requeued flit 1500354
Requeued flit 1501435
Requeued flit 1501879
Requeued flit 1502921
Requeued flit 1503408
Requeued flit 1503841
Requeued flit 1503773
Requeued flit 1504992
Requeued flit 1505446
Requeued flit 1505875
Requeued flit 1506087
Requeued flit 1506361
Requeued flit 1506492
Requeued flit 1506816
Requeued flit 1506916
Requeued flit 1508426
Requeued flit 1507232
Requeued flit 1507826
Requeued flit 1507678
Requeued flit 1510042
Requeued flit 1508545
Requeued flit 1510035
Requeued flit 1510445
Requeued flit 1511175
Requeued flit 1511203
Requeued flit 1511344
Requeued flit 1511104
Requeued flit 1511724
Requeued flit 1511759
Requeued flit 1512057
Requeued flit 1513295
Requeued flit 1513016
Requeued flit 1513828
Requeued flit 1514303
Requeued flit 1514934
Requeued flit 1514504
Requeued flit 1515604
Requeued flit 1515401
Requeued flit 1515653
Requeued flit 1515711
Requeued flit 1515696
Requeued flit 1515586
Requeued flit 1515781
Requeued flit 1515795
Requeued flit 1516395
Requeued flit 1517213
Requeued flit 1517172
Requeued flit 1517024
Requeued flit 1517926
Requeued flit 1517671
Requeued flit 1518134
Requeued flit 1518265
Requeued flit 1519608
Requeued flit 1521137
Requeued flit 1521407
Requeued flit 1522133
Requeued flit 1522942
Requeued flit 1523259
Requeued flit 1524037
Requeued flit 1524200
Requeued flit 1524899
Requeued flit 1524114
Requeued flit 1525574
Requeued flit 1525333
Requeued flit 1525735
Requeued flit 1526244
Requeued flit 1526646
Requeued flit 1526773
Requeued flit 1527825
Requeued flit 1527789
Requeued flit 1528282
Requeued flit 1528031
Requeued flit 1527815
Requeued flit 1530531
Requeued flit 1531147
Requeued flit 1531393
Requeued flit 1531280
Requeued flit 1531823
Requeued flit 1532480
Requeued flit 1532604
Requeued flit 1532972
Requeued flit 1533321
Requeued flit 1533991
Requeued flit 1534122
Requeued flit 1535375
Requeued flit 1535667
Requeued flit 1535436
Requeued flit 1537122
Requeued flit 1537071
Requeued flit 1537287
Requeued flit 1537268
Requeued flit 1536853
Requeued flit 1538231
Requeued flit 1538344
Requeued flit 1538489
Requeued flit 1538485
Requeued flit 1538183
Requeued flit 1538956
Requeued flit 1539776
Requeued flit 1540154
Requeued flit 1539813
Requeued flit 1540366
Requeued flit 1540940
Requeued flit 1540206
Requeued flit 1541091
Requeued flit 1542590
Requeued flit 1542688
Requeued flit 1542823
Requeued flit 1543613
Requeued flit 1544127
Requeued flit 1543912
Requeued flit 1545214
Requeued flit 1544728
Requeued flit 1543917
Requeued flit 1544144
Requeued flit 1545170
Requeued flit 1545044
Requeued flit 1545550
Requeued flit 1545481
Requeued flit 1546393
Requeued flit 1546328
Requeued flit 1545448
Requeued flit 1546531
Requeued flit 1546610
Requeued flit 1547350
Requeued flit 1547988
Requeued flit 1547997
Requeued flit 1548230
Requeued flit 1548354
Requeued flit 1549209
Requeued flit 1549432
Requeued flit 1549782
Requeued flit 1549139
Requeued flit 1551041
Requeued flit 1551456
Requeued flit 1551130
Requeued flit 1551769
Requeued flit 1552044
Requeued flit 1551932
Requeued flit 1552533
Requeued flit 1552605
Requeued flit 1552861
Requeued flit 1552938
Requeued flit 1553758
Requeued flit 1553297
Requeued flit 1553964
Requeued flit 1554410
Requeued flit 1555393
Requeued flit 1556214
Requeued flit 1556775
Requeued flit 1556909
Requeued flit 1557346
Requeued flit 1558643
Requeued flit 1557947
Requeued flit 1558430
Requeued flit 1558579
Requeued flit 1559782
Requeued flit 1560058
Requeued flit 1560051
Requeued flit 1559657
Requeued flit 1559381
Requeued flit 1559482
Requeued flit 1560630
Requeued flit 1561804
Requeued flit 1561793
Requeued flit 1561751
Requeued flit 1562238
Requeued flit 1562696
Requeued flit 1562253
Requeued flit 1562742
Requeued flit 1562882
Requeued flit 1563768
Requeued flit 1563677
Requeued flit 1564966
Requeued flit 1565624
Requeued flit 1566425
Requeued flit 1566148
Requeued flit 1567041
Requeued flit 1566855
Requeued flit 1567333
Requeued flit 1567789
Requeued flit 1567398
Requeued flit 1568188
Requeued flit 1568189
Requeued flit 1568500
Requeued flit 1568464
Requeued flit 1569794
Requeued flit 1569283
Requeued flit 1570174
Requeued flit 1570383
Requeued flit 1570706
Requeued flit 1570478
Requeued flit 1571266
Requeued flit 1571497
Requeued flit 1571864
Requeued flit 1571935
Requeued flit 1572556
Requeued flit 1571926
Requeued flit 1572663
Requeued flit 1572553
Requeued flit 1573337
Requeued flit 1574098
Requeued flit 1574597
Requeued flit 1574506
Requeued flit 1574153
Requeued flit 1575429
Requeued flit 1575786
Requeued flit 1575400
Requeued flit 1576946
Requeued flit 1576796
Requeued flit 1575283
Requeued flit 1576862
Requeued flit 1578098
Requeued flit 1578277
Requeued flit 1578650
Requeued flit 1578449
Requeued flit 1579488
Requeued flit 1580137
Requeued flit 1580578
Requeued flit 1581148
Requeued flit 1580738
Requeued flit 1581206
Requeued flit 1582057
Requeued flit 1581969
Requeued flit 1582627
Requeued flit 1582277
Requeued flit 1582445
Requeued flit 1583405
Requeued flit 1583998
Requeued flit 1583988
Requeued flit 1584516
Requeued flit 1584538
Requeued flit 1585172
Requeued flit 1585464
Requeued flit 1586346
Requeued flit 1586180
Requeued flit 1587709
Requeued flit 1587413
Requeued flit 1587950
Requeued flit 1588260
Requeued flit 1588487
Requeued flit 1589838
Requeued flit 1590084
Requeued flit 1590269
Requeued flit 1590405
Requeued flit 1590574
Requeued flit 1591448
Requeued flit 1591550
Requeued flit 1591828
Requeued flit 1591607
Requeued flit 1592024
Requeued flit 1592391
Requeued flit 1592135
Requeued flit 1591678
Requeued flit 1592469
Requeued flit 1592793
Requeued flit 1593518
Requeued flit 1594213
Requeued flit 1593592
Requeued flit 1595477
Requeued flit 1595377
Requeued flit 1595143
Requeued flit 1595530
Requeued flit 1595482
Requeued flit 1597144
Requeued flit 1596966
Requeued flit 1598135
Requeued flit 1598279
Requeued flit 1598667
Requeued flit 1598756
Requeued flit 1599162
Requeued flit 1599306
Requeued flit 1600050
Requeued flit 1600806
Requeued flit 1601361
Requeued flit 1602365
Requeued flit 1602714
Requeued flit 1602894
Requeued flit 1602914
Requeued flit 1603215
Requeued flit 1604558
Requeued flit 1605213
Requeued flit 1605256
Requeued flit 1605039
Requeued flit 1605900
Requeued flit 1606314
Requeued flit 1606380
Requeued flit 1606965
Requeued flit 1607612
Requeued flit 1607452
Requeued flit 1607371
Requeued flit 1607782
Requeued flit 1607598
Requeued flit 1608400
Requeued flit 1608387
Requeued flit 1608256
Requeued flit 1609809
Requeued flit 1610204
Requeued flit 1609825
Requeued flit 1611121
Requeued flit 1610783
Requeued flit 1612811
Requeued flit 1613025
Requeued flit 1612270
Requeued flit 1613047
Requeued flit 1613376
Requeued flit 1613665
Requeued flit 1613789
Requeued flit 1613622
Requeued flit 1614331
Requeued flit 1614874
Requeued flit 1615392
Requeued flit 1616262
Requeued flit 1615193
Requeued flit 1616841
Requeued flit 1616347
Requeued flit 1617621
Requeued flit 1617775
Requeued flit 1618070
Requeued flit 1617868
Requeued flit 1618694
Requeued flit 1618475
Requeued flit 1619659
Requeued flit 1619508
Requeued flit 1619354
Requeued flit 1620104
Requeued flit 1620693
Requeued flit 1621063
Requeued flit 1621328
Requeued flit 1621491
Requeued flit 1621599
Requeued flit 1621929
Requeued flit 1623150
Requeued flit 1623296
Requeued flit 1624541
Requeued flit 1624275
Requeued flit 1623914
Requeued flit 1624225
Requeued flit 1624690
Requeued flit 1625332
Requeued flit 1625487
Requeued flit 1625517
Requeued flit 1624910
Requeued flit 1625621
Requeued flit 1625441
Requeued flit 1626327
Requeued flit 1625442
Requeued flit 1625686
Requeued flit 1627609
Requeued flit 1628278
Requeued flit 1628612
Requeued flit 1628133
Requeued flit 1629380
Requeued flit 1629751
Requeued flit 1629697
Requeued flit 1630196
Requeued flit 1630285
Requeued flit 1630448
Requeued flit 1630337
Requeued flit 1631432
Requeued flit 1631739
Requeued flit 1631993
Requeued flit 1632513
Requeued flit 1632478
Requeued flit 1633372
Requeued flit 1633903
Requeued flit 1633201
Requeued flit 1633545
Requeued flit 1633925
Requeued flit 1634777
Requeued flit 1634522
Requeued flit 1635376
Requeued flit 1635856
Requeued flit 1635797
Requeued flit 1636472
Requeued flit 1635837
Requeued flit 1635703
Requeued flit 1636751
Requeued flit 1636656
Requeued flit 1638202
Requeued flit 1637646
Requeued flit 1638382
Requeued flit 1638179
Requeued flit 1639204
Requeued flit 1638890
Requeued flit 1639395
Requeued flit 1638752
Requeued flit 1639409
Requeued flit 1640680
Requeued flit 1642547
Requeued flit 1642515
Requeued flit 1642793
Requeued flit 1642743
Requeued flit 1643567
Requeued flit 1643484
Requeued flit 1643638
Requeued flit 1644630
Requeued flit 1644905
Requeued flit 1644631
Requeued flit 1645584
Requeued flit 1645791
Requeued flit 1646481
Requeued flit 1646715
Requeued flit 1646633
Requeued flit 1648249
Requeued flit 1648168
Requeued flit 1648720
Requeued flit 1648873
Requeued flit 1649865
Requeued flit 1649535
Requeued flit 1649864
Requeued flit 1649174
Requeued flit 1650275
Requeued flit 1650579
Requeued flit 1650642
Requeued flit 1650477
Requeued flit 1650622
Requeued flit 1651465
Requeued flit 1651461
Requeued flit 1652625
Requeued flit 1652883
Requeued flit 1653814
Requeued flit 1654191
Requeued flit 1654883
Requeued flit 1654551
Requeued flit 1655990
Requeued flit 1655430
Requeued flit 1655346
Requeued flit 1655923
Requeued flit 1656917
Requeued flit 1656458
Requeued flit 1657182
Requeued flit 1658067
Requeued flit 1658886
Requeued flit 1658501
Requeued flit 1659444
Requeued flit 1660051
Requeued flit 1660222
Requeued flit 1660029
Requeued flit 1660372
Requeued flit 1661385
Requeued flit 1661617
Requeued flit 1661593
Requeued flit 1661848
Requeued flit 1662100
Requeued flit 1662380
Requeued flit 1663185
Requeued flit 1664014
Requeued flit 1663551
Requeued flit 1664625
Requeued flit 1665167
Requeued flit 1665311
Requeued flit 1665854
Requeued flit 1666646
Requeued flit 1666457
Requeued flit 1666783
Requeued flit 1667177
Requeued flit 1666737
Requeued flit 1668438
Requeued flit 1668945
Requeued flit 1669697
Requeued flit 1669779
Requeued flit 1671456
Requeued flit 1671153
Requeued flit 1672430
Requeued flit 1671789
Requeued flit 1672610
Requeued flit 1673143
Requeued flit 1673361
Requeued flit 1674001
Requeued flit 1673793
Requeued flit 1673524
Requeued flit 1673828
Requeued flit 1674239
Requeued flit 1674070
Requeued flit 1675497
Requeued flit 1674971
Requeued flit 1676059
Requeued flit 1676547
Requeued flit 1676770
Requeued flit 1677526
Requeued flit 1677696
Requeued flit 1678420
Requeued flit 1678831
Requeued flit 1679919
Requeued flit 1679830
Requeued flit 1680751
Requeued flit 1680636
Requeued flit 1680441
Requeued flit 1680938
Requeued flit 1681697
Requeued flit 1681554
Requeued flit 1681559
Requeued flit 1682547
Requeued flit 1682789
Requeued flit 1682721
Requeued flit 1682366
Requeued flit 1682851
Requeued flit 1684299
Requeued flit 1684466
Requeued flit 1684879
Requeued flit 1685082
Requeued flit 1685152
Requeued flit 1685595
Requeued flit 1685752
Requeued flit 1686276
Requeued flit 1686664
Requeued flit 1687347
Requeued flit 1686361
Requeued flit 1689018
Requeued flit 1689439
Requeued flit 1690099
Requeued flit 1690116
Requeued flit 1690676
Requeued flit 1690526
Requeued flit 1691116
Requeued flit 1691323
Requeued flit 1691866
Requeued flit 1691391
Requeued flit 1691825
Requeued flit 1691958
Requeued flit 1691815
Requeued flit 1692068
Requeued flit 1693006
Requeued flit 1691960
Requeued flit 1692910
Requeued flit 1693479
Requeued flit 1694119
Requeued flit 1694353
Requeued flit 1693793
Requeued flit 1695094
Requeued flit 1693793
Requeued flit 1695076
Requeued flit 1695658
Requeued flit 1696289
Requeued flit 1695918
Requeued flit 1696104
Requeued flit 1696363
Requeued flit 1697803
Requeued flit 1697570
Requeued flit 1698231
Requeued flit 1697866
Requeued flit 1698904
Requeued flit 1698476
Requeued flit 1699199
Requeued flit 1699177
Requeued flit 1698888
Requeued flit 1699618
Requeued flit 1699824
Requeued flit 1699707
Requeued flit 1700925
Requeued flit 1702544
Requeued flit 1702751
Requeued flit 1703236
Requeued flit 1703067
Requeued flit 1704058
Requeued flit 1703766
Requeued flit 1704030
Requeued flit 1705338
Requeued flit 1705348
Requeued flit 1705440
Requeued flit 1705348
Requeued flit 1705672
Requeued flit 1705946
Requeued flit 1706029
Requeued flit 1706337
Requeued flit 1707599
Requeued flit 1707452
Requeued flit 1707803
Requeued flit 1709933
Requeued flit 1709424
Requeued flit 1711204
Requeued flit 1711783
Requeued flit 1711741
Requeued flit 1712087
Requeued flit 1711453
Requeued flit 1712140
Requeued flit 1713051
Requeued flit 1713236
Requeued flit 1713856
Requeued flit 1713751
Requeued flit 1713855
Requeued flit 1713594
Requeued flit 1714167
Requeued flit 1715030
Requeued flit 1714377
Requeued flit 1715273
Requeued flit 1715051
Requeued flit 1715220
Requeued flit 1716118
Requeued flit 1716561
Requeued flit 1717003
Requeued flit 1717360
Requeued flit 1718138
Requeued flit 1718950
Requeued flit 1719187
Requeued flit 1719084
Requeued flit 1718186
Requeued flit 1719687
Requeued flit 1719910
Requeued flit 1719681
Requeued flit 1719311
Requeued flit 1720236
Requeued flit 1720210
Requeued flit 1719796
Requeued flit 1720347
Requeued flit 1721082
Requeued flit 1721343
Requeued flit 1721305
Requeued flit 1721620
Requeued flit 1722222
Requeued flit 1722580
Requeued flit 1722960
Requeued flit 1722412
Requeued flit 1723781
Requeued flit 1723328
Requeued flit 1724822
Requeued flit 1725427
Requeued flit 1725644
Requeued flit 1725052
Requeued flit 1725813
Requeued flit 1725510
Requeued flit 1726221
Requeued flit 1725949
Class 0:
Packet latency average = 27.1646
	minimum = 5
	maximum = 108
Network latency average = 27.1646
	minimum = 5
	maximum = 108
Slowest packet = 1455059
Flit latency average = 27.1691
	minimum = 5
	maximum = 108
Slowest flit = 1455059
Fragmentation average = 0
	minimum = 0
	maximum = 0
Injected packet rate average = 0.449497
	minimum = 0.4418 (at node 44)
	maximum = 0.455367 (at node 49)
Accepted packet rate average = 0.449468
	minimum = 0.439933 (at node 40)
	maximum = 0.456433 (at node 38)
Injected flit rate average = 0.449497
	minimum = 0.4418 (at node 44)
	maximum = 0.455367 (at node 49)
Accepted flit rate average= 0.449468
	minimum = 0.439933 (at node 40)
	maximum = 0.456433 (at node 38)
Injected packet length average = 1
Accepted packet length average = 1
Total in-flight flits = 818 (818 measured)
latency change    = 0.00282505
throughput change = 0.000925284
Draining all recorded packets ...
in flight = 818
Requeued flit 1726678
in flight = 791
in flight = 762
in flight = 737
in flight = 706
in flight = 678
in flight = 653
in flight = 627
in flight = 596
in flight = 564
in flight = 540
in flight = 512
in flight = 490
in flight = 463
in flight = 432
in flight = 407
in flight = 385
in flight = 360
in flight = 334
in flight = 312
in flight = 296
in flight = 278
in flight = 260
in flight = 242
in flight = 217
in flight = 206
in flight = 193
in flight = 184
in flight = 170
in flight = 163
in flight = 151
in flight = 137
in flight = 128
in flight = 114
in flight = 105
in flight = 95
in flight = 92
in flight = 84
in flight = 78
in flight = 69
Requeued flit 1727918
in flight = 64
in flight = 57
in flight = 51
in flight = 48
in flight = 45
Requeued flit 1727266
in flight = 41
in flight = 37
in flight = 33
in flight = 31
in flight = 25
in flight = 19
in flight = 18
in flight = 16
in flight = 14
in flight = 11
in flight = 9
in flight = 9
in flight = 7
in flight = 6
in flight = 4
in flight = 2
in flight = 2
in flight = 2
in flight = 2
in flight = 2
in flight = 1
Draining remaining packets ...
Requeued flit 1728853
Time taken is 60117 cycles
====== Overall Traffic Statistics ======
====== Traffic class 0 ======
Packet latency average = 27.1719 (1 samples)
	minimum = 5 (1 samples)
	maximum = 108 (1 samples)
Network latency average = 27.1719 (1 samples)
	minimum = 5 (1 samples)
	maximum = 108 (1 samples)
Flit latency average = 27.1773 (1 samples)
	minimum = 5 (1 samples)
	maximum = 108 (1 samples)
Fragmentation average = 0 (1 samples)
	minimum = 0 (1 samples)
	maximum = 0 (1 samples)
Injected packet rate average = 0.449497 (1 samples)
	minimum = 0.4418 (1 samples)
	maximum = 0.455367 (1 samples)
Accepted packet rate average = 0.449468 (1 samples)
	minimum = 0.439933 (1 samples)
	maximum = 0.456433 (1 samples)
Injected flit rate average = 0.449497 (1 samples)
	minimum = 0.4418 (1 samples)
	maximum = 0.455367 (1 samples)
Accepted flit rate average = 0.449468 (1 samples)
	minimum = 0.439933 (1 samples)
	maximum = 0.456433 (1 samples)
Injected packet size average = 1 (1 samples)
Accepted packet size average = 1 (1 samples)
Hops average = 6.24735 (1 samples)
Total run time 178.427
