BEGIN Configuration File: examples/ecc_mesh88_config_0_0.350_link_2
// $Id$

// Copyright (c) 2007-2015, Trustees of The Leland Stanford Junior University
// All rights reserved.
//
// Redistribution and use in source and binary forms, with or without
// modification, are permitted provided that the following conditions are met:
//
// Redistributions of source code must retain the above copyright notice, this
// list of conditions and the following disclaimer.
// Redistributions in binary form must reproduce the above copyright notice,
// this list of conditions and the following disclaimer in the documentation
// and/or other materials provided with the distribution.
//
// THIS SOFTWARE IS PROVIDED BY THE COPYRIGHT HOLDERS AND CONTRIBUTORS "AS IS"
// AND ANY EXPRESS OR IMPLIED WARRANTIES, INCLUDING, BUT NOT LIMITED TO, THE
// IMPLIED WARRANTIES OF MERCHANTABILITY AND FITNESS FOR A PARTICULAR PURPOSE
// ARE DISCLAIMED. IN NO EVENT SHALL THE COPYRIGHT OWNER OR CONTRIBUTORS BE
// LIABLE FOR ANY DIRECT, INDIRECT, INCIDENTAL, SPECIAL, EXEMPLARY, OR
// CONSEQUENTIAL DAMAGES (INCLUDING, BUT NOT LIMITED TO, PROCUREMENT OF
// SUBSTITUTE GOODS OR SERVICES; LOSS OF USE, DATA, OR PROFITS; OR BUSINESS
// INTERRUPTION) HOWEVER CAUSED AND ON ANY THEORY OF LIABILITY, WHETHER IN
// CONTRACT, STRICT LIABILITY, OR TORT (INCLUDING NEGLIGENCE OR OTHERWISE)
// ARISING IN ANY WAY OUT OF THE USE OF THIS SOFTWARE, EVEN IF ADVISED OF THE
// POSSIBILITY OF SUCH DAMAGE.

// Dragonfly
//




vc_buf_size = 256;


wait_for_tail_credit = 0;

//
// Router architecture
//
vc_allocator = separable_input_first; 
sw_allocator = separable_input_first;
alloc_iters  = 1;

credit_delay   = 2;
routing_delay  = 0;
vc_alloc_delay = 1;
sw_alloc_delay = 1;
st_final_delay = 1;

input_speedup     = 1;
output_speedup    = 1;
internal_speedup  = 2.0;


warmup_periods = 3;
sim_count          = 1;

sample_period  = 10000;  


routing_function = dor;
num_vcs     = 2;

priority = none;
traffic       = uniform; 

injection_rate = 0.35;
packet_size = 1;
injection_rate_uses_flits=1;

topology = mesh;

k  = 8;
n  = 2;

fer = 2;
ecc = link;
correctable = 0;

watch_out=-;
watch_file = watch.txt;

ecc = link;

stats_out = examples/ecc_mesh88_config_0_0.350_link_2.m;

END Configuration File: examples/ecc_mesh88_config_0_0.350_link_2
Requeued flit 68
Requeued flit 202
Requeued flit 33
Requeued flit 2
Requeued flit 235
Requeued flit 49
Requeued flit 306
Requeued flit 161
Requeued flit 61
Requeued flit 374
Requeued flit 363
Requeued flit 464
Requeued flit 382
Requeued flit 428
Requeued flit 405
Requeued flit 150
Requeued flit 136
Requeued flit 443
Requeued flit 502
Requeued flit 562
Requeued flit 452
Requeued flit 519
Requeued flit 611
Requeued flit 463
Requeued flit 590
Requeued flit 303
Requeued flit 309
Requeued flit 109
Requeued flit 696
Requeued flit 453
Requeued flit 294
Requeued flit 601
Requeued flit 298
Requeued flit 628
Requeued flit 701
Requeued flit 613
Requeued flit 302
Requeued flit 437
Requeued flit 394
Requeued flit 736
Requeued flit 639
Requeued flit 834
Requeued flit 843
Requeued flit 782
Requeued flit 822
Requeued flit 785
Requeued flit 162
Requeued flit 751
Requeued flit 833
Requeued flit 943
Requeued flit 978
Requeued flit 1022
Requeued flit 747
Requeued flit 1007
Requeued flit 937
Requeued flit 899
Requeued flit 601
Requeued flit 933
Requeued flit 984
Requeued flit 1143
Requeued flit 956
Requeued flit 1008
Requeued flit 1193
Requeued flit 929
Requeued flit 1265
Requeued flit 1059
Requeued flit 1382
Requeued flit 1204
Requeued flit 1180
Requeued flit 659
Requeued flit 845
Requeued flit 1260
Requeued flit 1275
Requeued flit 1386
Requeued flit 1489
Requeued flit 1412
Requeued flit 1435
Requeued flit 937
Requeued flit 1187
Requeued flit 1307
Requeued flit 1169
Requeued flit 1374
Requeued flit 1543
Requeued flit 1590
Requeued flit 1152
Requeued flit 1534
Requeued flit 1717
Requeued flit 1368
Requeued flit 1445
Requeued flit 1713
Requeued flit 1762
Requeued flit 1771
Requeued flit 1799
Requeued flit 1559
Requeued flit 1689
Requeued flit 1396
Requeued flit 1623
Requeued flit 1977
Requeued flit 2026
Requeued flit 1541
Requeued flit 1689
Requeued flit 2008
Requeued flit 1781
Requeued flit 1545
Requeued flit 1803
Requeued flit 2140
Requeued flit 2014
Requeued flit 2218
Requeued flit 2241
Requeued flit 2099
Requeued flit 2328
Requeued flit 2064
Requeued flit 2097
Requeued flit 2368
Requeued flit 1771
Requeued flit 2213
Requeued flit 1897
Requeued flit 1905
Requeued flit 2046
Requeued flit 2164
Requeued flit 2406
Requeued flit 2480
Requeued flit 2194
Requeued flit 2201
Requeued flit 2117
Requeued flit 2107
Requeued flit 2469
Requeued flit 2247
Requeued flit 2573
Requeued flit 2318
Requeued flit 2239
Requeued flit 2401
Requeued flit 2561
Requeued flit 2589
Requeued flit 2590
Requeued flit 2427
Requeued flit 2592
Requeued flit 2350
Requeued flit 2122
Requeued flit 2368
Requeued flit 2610
Requeued flit 2182
Requeued flit 2695
Requeued flit 2611
Requeued flit 2742
Requeued flit 2698
Requeued flit 2849
Requeued flit 2356
Requeued flit 2485
Requeued flit 2669
Requeued flit 2582
Requeued flit 2751
Requeued flit 2931
Requeued flit 2608
Requeued flit 2504
Requeued flit 2520
Requeued flit 2935
Requeued flit 2771
Requeued flit 2911
Requeued flit 3003
Requeued flit 2897
Requeued flit 2966
Requeued flit 2778
Requeued flit 3019
Requeued flit 3077
Requeued flit 3094
Requeued flit 2835
Requeued flit 2787
Requeued flit 2430
Requeued flit 2702
Requeued flit 2587
Requeued flit 2793
Requeued flit 3190
Requeued flit 3163
Requeued flit 3316
Requeued flit 3305
Requeued flit 3226
Requeued flit 3009
Requeued flit 3386
Requeued flit 3409
Requeued flit 2875
Requeued flit 3463
Requeued flit 3455
Requeued flit 3469
Requeued flit 3432
Requeued flit 3316
Requeued flit 3003
Requeued flit 3162
Requeued flit 3515
Requeued flit 3461
Requeued flit 3532
Requeued flit 3516
Requeued flit 3366
Requeued flit 3459
Requeued flit 3451
Requeued flit 3439
Requeued flit 3777
Requeued flit 3310
Requeued flit 3647
Requeued flit 3383
Requeued flit 3804
Requeued flit 3826
Requeued flit 3596
Requeued flit 3809
Requeued flit 3743
Requeued flit 3664
Requeued flit 3325
Requeued flit 3877
Requeued flit 3892
Requeued flit 3821
Requeued flit 3350
Requeued flit 3623
Requeued flit 3705
Requeued flit 3651
Requeued flit 3935
Requeued flit 3747
Requeued flit 3877
Requeued flit 3679
Requeued flit 4015
Requeued flit 3803
Requeued flit 3935
Requeued flit 3378
Requeued flit 3601
Requeued flit 3812
Requeued flit 3989
Requeued flit 4194
Requeued flit 4130
Requeued flit 4202
Requeued flit 3852
Requeued flit 4203
Requeued flit 3768
Requeued flit 3766
Requeued flit 4208
Requeued flit 4212
Requeued flit 4219
Requeued flit 4275
Requeued flit 4287
Requeued flit 4297
Requeued flit 4305
Requeued flit 4292
Requeued flit 4040
Requeued flit 3935
Requeued flit 4328
Requeued flit 4318
Requeued flit 4237
Requeued flit 4234
Requeued flit 4314
Requeued flit 4353
Requeued flit 4511
Requeued flit 4316
Requeued flit 3747
Requeued flit 4550
Requeued flit 4534
Requeued flit 4562
Requeued flit 4190
Requeued flit 4308
Requeued flit 4131
Requeued flit 4594
Requeued flit 4598
Requeued flit 4536
Requeued flit 4542
Requeued flit 4394
Requeued flit 4659
Requeued flit 4195
Requeued flit 4750
Requeued flit 4700
Requeued flit 4292
Requeued flit 4754
Requeued flit 4584
Requeued flit 4510
Requeued flit 4788
Requeued flit 4479
Requeued flit 4387
Requeued flit 4308
Requeued flit 4262
Requeued flit 4752
Requeued flit 4901
Requeued flit 4915
Requeued flit 4845
Requeued flit 4711
Requeued flit 4297
Requeued flit 4436
Requeued flit 4929
Requeued flit 4965
Requeued flit 5094
Requeued flit 4900
Requeued flit 4907
Requeued flit 4992
Requeued flit 4855
Requeued flit 4590
Requeued flit 4714
Requeued flit 5063
Requeued flit 4983
Requeued flit 4907
Requeued flit 5048
Requeued flit 5181
Requeued flit 5019
Requeued flit 5195
Requeued flit 5237
Requeued flit 4964
Requeued flit 5073
Requeued flit 5303
Requeued flit 5051
Requeued flit 5143
Requeued flit 5274
Requeued flit 5086
Requeued flit 5396
Requeued flit 4929
Requeued flit 5435
Requeued flit 5069
Requeued flit 5473
Requeued flit 5337
Requeued flit 5533
Requeued flit 5266
Requeued flit 5511
Requeued flit 5294
Requeued flit 5292
Requeued flit 5571
Requeued flit 5603
Requeued flit 5631
Requeued flit 5530
Requeued flit 4952
Requeued flit 5677
Requeued flit 5354
Requeued flit 5203
Requeued flit 5149
Requeued flit 5591
Requeued flit 5816
Requeued flit 5586
Requeued flit 5548
Requeued flit 5833
Requeued flit 5583
Requeued flit 5561
Requeued flit 5874
Requeued flit 5474
Requeued flit 5722
Requeued flit 5777
Requeued flit 5521
Requeued flit 6051
Requeued flit 6010
Requeued flit 5795
Requeued flit 5892
Requeued flit 6111
Requeued flit 5690
Requeued flit 6037
Requeued flit 6127
Requeued flit 5887
Requeued flit 6072
Requeued flit 6032
Requeued flit 6219
Requeued flit 6106
Requeued flit 5805
Requeued flit 5909
Requeued flit 6196
Requeued flit 6283
Requeued flit 5804
Requeued flit 6224
Requeued flit 5551
Requeued flit 6318
Requeued flit 5961
Requeued flit 6360
Requeued flit 6270
Requeued flit 6213
Requeued flit 6283
Requeued flit 6352
Requeued flit 6474
Requeued flit 6313
Requeued flit 6587
Requeued flit 6512
Requeued flit 6620
Requeued flit 6206
Requeued flit 6452
Requeued flit 6362
Requeued flit 6531
Requeued flit 6474
Requeued flit 6686
Requeued flit 6085
Requeued flit 6576
Requeued flit 6473
Requeued flit 6106
Requeued flit 6733
Requeued flit 6459
Requeued flit 6395
Requeued flit 6799
Requeued flit 6763
Requeued flit 6404
Requeued flit 6800
Requeued flit 6578
Requeued flit 6493
Requeued flit 6526
Requeued flit 6891
Requeued flit 6402
Requeued flit 6854
Requeued flit 6419
Requeued flit 6927
Requeued flit 6810
Requeued flit 6986
Requeued flit 6907
Requeued flit 6259
Requeued flit 6860
Requeued flit 6916
Requeued flit 7004
Requeued flit 6699
Requeued flit 7158
Requeued flit 6502
Requeued flit 6948
Requeued flit 7102
Requeued flit 7106
Requeued flit 7020
Requeued flit 7127
Requeued flit 6927
Requeued flit 7229
Requeued flit 7133
Requeued flit 6578
Requeued flit 7016
Requeued flit 7059
Requeued flit 7143
Requeued flit 7327
Requeued flit 7290
Requeued flit 7304
Requeued flit 7417
Requeued flit 7355
Requeued flit 7278
Requeued flit 7426
Requeued flit 7252
Requeued flit 7431
Requeued flit 7514
Requeued flit 7402
Requeued flit 7222
Requeued flit 6950
Requeued flit 7559
Requeued flit 7445
Requeued flit 7117
Requeued flit 6948
Requeued flit 7417
Requeued flit 7406
Requeued flit 7600
Requeued flit 7178
Requeued flit 7652
Requeued flit 7316
Requeued flit 7648
Requeued flit 7253
Requeued flit 7471
Requeued flit 7662
Requeued flit 7597
Requeued flit 7325
Requeued flit 7465
Requeued flit 7381
Requeued flit 7729
Requeued flit 7367
Requeued flit 7877
Requeued flit 7722
Requeued flit 7815
Requeued flit 7578
Requeued flit 7996
Requeued flit 7497
Requeued flit 7625
Requeued flit 8009
Requeued flit 7869
Requeued flit 8056
Requeued flit 7968
Requeued flit 7918
Requeued flit 7820
Requeued flit 8103
Requeued flit 7848
Requeued flit 7597
Requeued flit 8047
Requeued flit 8035
Requeued flit 7751
Requeued flit 8138
Requeued flit 7716
Requeued flit 7302
Requeued flit 7989
Requeued flit 8065
Requeued flit 8171
Requeued flit 8246
Requeued flit 8066
Requeued flit 8101
Requeued flit 8198
Requeued flit 8336
Requeued flit 7781
Requeued flit 8077
Requeued flit 8440
Requeued flit 8443
Requeued flit 8482
Requeued flit 8332
Requeued flit 8459
Requeued flit 8044
Requeued flit 8481
Requeued flit 8200
Requeued flit 7889
Requeued flit 8523
Requeued flit 8502
Requeued flit 8554
Requeued flit 8425
Requeued flit 8418
Requeued flit 8012
Requeued flit 7928
Requeued flit 8453
Requeued flit 8106
Requeued flit 8599
Requeued flit 8156
Requeued flit 8242
Requeued flit 8442
Requeued flit 8553
Requeued flit 8568
Requeued flit 8714
Requeued flit 8669
Requeued flit 8596
Requeued flit 8626
Requeued flit 8223
Requeued flit 8762
Requeued flit 8572
Requeued flit 8682
Requeued flit 8826
Requeued flit 8541
Requeued flit 8786
Requeued flit 8885
Requeued flit 8900
Requeued flit 8511
Requeued flit 8745
Requeued flit 8859
Requeued flit 8968
Requeued flit 8925
Requeued flit 8710
Requeued flit 8806
Requeued flit 8770
Requeued flit 8552
Requeued flit 9006
Requeued flit 8857
Requeued flit 9131
Requeued flit 9114
Requeued flit 9143
Requeued flit 8683
Requeued flit 9173
Requeued flit 9176
Requeued flit 9198
Requeued flit 9241
Requeued flit 8468
Requeued flit 9156
Requeued flit 8879
Requeued flit 9248
Requeued flit 9258
Requeued flit 8810
Requeued flit 9143
Requeued flit 8669
Requeued flit 9076
Requeued flit 9335
Requeued flit 9082
Requeued flit 9459
Requeued flit 9464
Requeued flit 8905
Requeued flit 9324
Requeued flit 9093
Requeued flit 9443
Requeued flit 9527
Requeued flit 9085
Requeued flit 9325
Requeued flit 9582
Requeued flit 9508
Requeued flit 9296
Requeued flit 9512
Requeued flit 9308
Requeued flit 9613
Requeued flit 9492
Requeued flit 8926
Requeued flit 9565
Requeued flit 9169
Requeued flit 9598
Requeued flit 9543
Requeued flit 9384
Requeued flit 9306
Requeued flit 9755
Requeued flit 9580
Requeued flit 9795
Requeued flit 9606
Requeued flit 9777
Requeued flit 9837
Requeued flit 9847
Requeued flit 9532
Requeued flit 9826
Requeued flit 9889
Requeued flit 9929
Requeued flit 9597
Requeued flit 9891
Requeued flit 10016
Requeued flit 10084
Requeued flit 9972
Requeued flit 10120
Requeued flit 9985
Requeued flit 10035
Requeued flit 9818
Requeued flit 10027
Requeued flit 9984
Requeued flit 10161
Requeued flit 10153
Requeued flit 9967
Requeued flit 9836
Requeued flit 10164
Requeued flit 10061
Requeued flit 10024
Requeued flit 10236
Requeued flit 10200
Requeued flit 10188
Requeued flit 10237
Requeued flit 10388
Requeued flit 9805
Requeued flit 9985
Requeued flit 9982
Requeued flit 10227
Requeued flit 10386
Requeued flit 9974
Requeued flit 10318
Requeued flit 10506
Requeued flit 10210
Requeued flit 10376
Requeued flit 10267
Requeued flit 10505
Requeued flit 10132
Requeued flit 10254
Requeued flit 10074
Requeued flit 10421
Requeued flit 10179
Requeued flit 10164
Requeued flit 10412
Requeued flit 10346
Requeued flit 10737
Requeued flit 10790
Requeued flit 10666
Requeued flit 10674
Requeued flit 10455
Requeued flit 10766
Requeued flit 10874
Requeued flit 10771
Requeued flit 10275
Requeued flit 10724
Requeued flit 10831
Requeued flit 10566
Requeued flit 10556
Requeued flit 10554
Requeued flit 10803
Requeued flit 10907
Requeued flit 10759
Requeued flit 11102
Requeued flit 10641
Requeued flit 11017
Requeued flit 11207
Requeued flit 10774
Requeued flit 11140
Requeued flit 10797
Requeued flit 11138
Requeued flit 11201
Requeued flit 10788
Requeued flit 11176
Requeued flit 10811
Requeued flit 11270
Requeued flit 10521
Requeued flit 10649
Requeued flit 11102
Requeued flit 11351
Requeued flit 11358
Requeued flit 10556
Requeued flit 11252
Requeued flit 11246
Requeued flit 11310
Requeued flit 10790
Requeued flit 10994
Requeued flit 11171
Requeued flit 11369
Requeued flit 11387
Requeued flit 11188
Requeued flit 11218
Requeued flit 11430
Requeued flit 11442
Requeued flit 10822
Requeued flit 11462
Requeued flit 11564
Requeued flit 11326
Requeued flit 11444
Requeued flit 11504
Requeued flit 11470
Requeued flit 11584
Requeued flit 11248
Requeued flit 11723
Requeued flit 11320
Requeued flit 11464
Requeued flit 11695
Requeued flit 11823
Requeued flit 11623
Requeued flit 11392
Requeued flit 11599
Requeued flit 11683
Requeued flit 11355
Requeued flit 11936
Requeued flit 11225
Requeued flit 11729
Requeued flit 11668
Requeued flit 11610
Requeued flit 11724
Requeued flit 11436
Requeued flit 11971
Requeued flit 11567
Requeued flit 11545
Requeued flit 11621
Requeued flit 11777
Requeued flit 11270
Requeued flit 11527
Requeued flit 11826
Requeued flit 11796
Requeued flit 11882
Requeued flit 11945
Requeued flit 12040
Requeued flit 11625
Requeued flit 11738
Requeued flit 11739
Requeued flit 11599
Requeued flit 11791
Requeued flit 12058
Requeued flit 12093
Requeued flit 12056
Requeued flit 11646
Requeued flit 12020
Requeued flit 12144
Requeued flit 12256
Requeued flit 12125
Requeued flit 11369
Requeued flit 11840
Requeued flit 11741
Requeued flit 11997
Requeued flit 11955
Requeued flit 12202
Requeued flit 11796
Requeued flit 12067
Requeued flit 12321
Requeued flit 12127
Requeued flit 12098
Requeued flit 12324
Requeued flit 12006
Requeued flit 12117
Requeued flit 12462
Requeued flit 12337
Requeued flit 12110
Requeued flit 12478
Requeued flit 11888
Requeued flit 12148
Requeued flit 12528
Requeued flit 12524
Requeued flit 12611
Requeued flit 12334
Requeued flit 12599
Requeued flit 12518
Requeued flit 12614
Requeued flit 12466
Requeued flit 12676
Requeued flit 12030
Requeued flit 12476
Requeued flit 12665
Requeued flit 12448
Requeued flit 12464
Requeued flit 12531
Requeued flit 12747
Requeued flit 12726
Requeued flit 12489
Requeued flit 12660
Requeued flit 12673
Requeued flit 12552
Requeued flit 12636
Requeued flit 12645
Requeued flit 12868
Requeued flit 12833
Requeued flit 12887
Requeued flit 12628
Requeued flit 12405
Requeued flit 12336
Requeued flit 12950
Requeued flit 12658
Requeued flit 12965
Requeued flit 12837
Requeued flit 12657
Requeued flit 13026
Requeued flit 13007
Requeued flit 12917
Requeued flit 12676
Requeued flit 12948
Requeued flit 13090
Requeued flit 12551
Requeued flit 12629
Requeued flit 12489
Requeued flit 13097
Requeued flit 13067
Requeued flit 13045
Requeued flit 13133
Requeued flit 12961
Requeued flit 12848
Requeued flit 13095
Requeued flit 13003
Requeued flit 13012
Requeued flit 13168
Requeued flit 13173
Requeued flit 12809
Requeued flit 13218
Requeued flit 13160
Requeued flit 13183
Requeued flit 12850
Requeued flit 13007
Requeued flit 12799
Requeued flit 13264
Requeued flit 12666
Requeued flit 13003
Requeued flit 13062
Requeued flit 12590
Requeued flit 12599
Requeued flit 13333
Requeued flit 13342
Requeued flit 12962
Requeued flit 13274
Requeued flit 12935
Requeued flit 13119
Requeued flit 13028
Requeued flit 13303
Requeued flit 13307
Requeued flit 13434
Requeued flit 12658
Requeued flit 13368
Requeued flit 13150
Requeued flit 12699
Requeued flit 12935
Requeued flit 13095
Requeued flit 13312
Requeued flit 13153
Requeued flit 13532
Requeued flit 13562
Requeued flit 13639
Requeued flit 13675
Requeued flit 13583
Requeued flit 13509
Requeued flit 13764
Requeued flit 13207
Requeued flit 13469
Requeued flit 13721
Requeued flit 13625
Requeued flit 13687
Requeued flit 13785
Requeued flit 13760
Requeued flit 13792
Requeued flit 13335
Requeued flit 13799
Requeued flit 13825
Requeued flit 13747
Requeued flit 13711
Requeued flit 13727
Requeued flit 13779
Requeued flit 13131
Requeued flit 13902
Requeued flit 13633
Requeued flit 13610
Requeued flit 13820
Requeued flit 13801
Requeued flit 13863
Requeued flit 13766
Requeued flit 13989
Requeued flit 13286
Requeued flit 13906
Requeued flit 14043
Requeued flit 14035
Requeued flit 13908
Requeued flit 14018
Requeued flit 13711
Requeued flit 14096
Requeued flit 14100
Requeued flit 14108
Requeued flit 13368
Requeued flit 14094
Requeued flit 14066
Requeued flit 14008
Requeued flit 14092
Requeued flit 14166
Requeued flit 13696
Requeued flit 14121
Requeued flit 13804
Requeued flit 14284
Requeued flit 13879
Requeued flit 14086
Requeued flit 14218
Requeued flit 14292
Requeued flit 14040
Requeued flit 13727
Requeued flit 14337
Requeued flit 14352
Requeued flit 14446
Requeued flit 14099
Requeued flit 14276
Requeued flit 14481
Requeued flit 14371
Requeued flit 14547
Requeued flit 14314
Requeued flit 14541
Requeued flit 14201
Requeued flit 14341
Requeued flit 14483
Requeued flit 14284
Requeued flit 14525
Requeued flit 14640
Requeued flit 14190
Requeued flit 14468
Requeued flit 14614
Requeued flit 14721
Requeued flit 14220
Requeued flit 14487
Requeued flit 14686
Requeued flit 14457
Requeued flit 14708
Requeued flit 14275
Requeued flit 14529
Requeued flit 14689
Requeued flit 14898
Requeued flit 14904
Requeued flit 14817
Requeued flit 14516
Requeued flit 14577
Requeued flit 15061
Requeued flit 15052
Requeued flit 14932
Requeued flit 14957
Requeued flit 15098
Requeued flit 14964
Requeued flit 15110
Requeued flit 14572
Requeued flit 14967
Requeued flit 14870
Requeued flit 14828
Requeued flit 15179
Requeued flit 15173
Requeued flit 15108
Requeued flit 14769
Requeued flit 15301
Requeued flit 15218
Requeued flit 15269
Requeued flit 15232
Requeued flit 15292
Requeued flit 15245
Requeued flit 14819
Requeued flit 15363
Requeued flit 15274
Requeued flit 15243
Requeued flit 15462
Requeued flit 15425
Requeued flit 15411
Requeued flit 15281
Requeued flit 15518
Requeued flit 15443
Requeued flit 15461
Requeued flit 15459
Requeued flit 15460
Requeued flit 15577
Requeued flit 15360
Requeued flit 15281
Requeued flit 15166
Requeued flit 15655
Requeued flit 15057
Requeued flit 15758
Requeued flit 15308
Requeued flit 15666
Requeued flit 15824
Requeued flit 15780
Requeued flit 15627
Requeued flit 15862
Requeued flit 15393
Requeued flit 15560
Requeued flit 15694
Requeued flit 15867
Requeued flit 14857
Requeued flit 15484
Requeued flit 15820
Requeued flit 15647
Requeued flit 15809
Requeued flit 15981
Requeued flit 15899
Requeued flit 15895
Requeued flit 15585
Requeued flit 15465
Requeued flit 15944
Requeued flit 15596
Requeued flit 15823
Requeued flit 15507
Requeued flit 16133
Requeued flit 15714
Requeued flit 16220
Requeued flit 15522
Requeued flit 15790
Requeued flit 16205
Requeued flit 15902
Requeued flit 16139
Requeued flit 16046
Requeued flit 16131
Requeued flit 16158
Requeued flit 16266
Requeued flit 16289
Requeued flit 16319
Requeued flit 16310
Requeued flit 16373
Requeued flit 16249
Requeued flit 16321
Requeued flit 16135
Requeued flit 16290
Requeued flit 16382
Requeued flit 16210
Requeued flit 16400
Requeued flit 16378
Requeued flit 16234
Requeued flit 16389
Requeued flit 16508
Requeued flit 15989
Requeued flit 16644
Requeued flit 16078
Requeued flit 15903
Requeued flit 16273
Requeued flit 16158
Requeued flit 16474
Requeued flit 16421
Requeued flit 16385
Requeued flit 16137
Requeued flit 16738
Requeued flit 16769
Requeued flit 16621
Requeued flit 16776
Requeued flit 16483
Requeued flit 16698
Requeued flit 16635
Requeued flit 16653
Requeued flit 16395
Requeued flit 16891
Requeued flit 16651
Requeued flit 16907
Requeued flit 16667
Requeued flit 16287
Requeued flit 16865
Requeued flit 17009
Requeued flit 16985
Requeued flit 16382
Requeued flit 16748
Requeued flit 16930
Requeued flit 17074
Requeued flit 17079
Requeued flit 16290
Requeued flit 16821
Requeued flit 17005
Requeued flit 17008
Requeued flit 16742
Requeued flit 16865
Requeued flit 16689
Requeued flit 16854
Requeued flit 16745
Requeued flit 17186
Requeued flit 17087
Requeued flit 17136
Requeued flit 17026
Requeued flit 16602
Requeued flit 16803
Requeued flit 17205
Requeued flit 17163
Requeued flit 16673
Requeued flit 17390
Requeued flit 17393
Requeued flit 17338
Requeued flit 16965
Requeued flit 16831
Requeued flit 17550
Requeued flit 17482
Requeued flit 17476
Requeued flit 17673
Requeued flit 17240
Requeued flit 17630
Requeued flit 17405
Requeued flit 17547
Requeued flit 17377
Requeued flit 17386
Requeued flit 17473
Requeued flit 17744
Requeued flit 17708
Requeued flit 17533
Requeued flit 17421
Requeued flit 17218
Requeued flit 17692
Requeued flit 17405
Requeued flit 17857
Requeued flit 17937
Requeued flit 17773
Requeued flit 17855
Requeued flit 17907
Requeued flit 17626
Requeued flit 17878
Requeued flit 17881
Requeued flit 17421
Requeued flit 17721
Requeued flit 17220
Requeued flit 17780
Requeued flit 17924
Requeued flit 18041
Requeued flit 17992
Requeued flit 18018
Requeued flit 17337
Requeued flit 18097
Requeued flit 18060
Requeued flit 18110
Requeued flit 17879
Requeued flit 17794
Requeued flit 17927
Requeued flit 17829
Requeued flit 17922
Requeued flit 18084
Requeued flit 17689
Requeued flit 18086
Requeued flit 17823
Requeued flit 18251
Requeued flit 17669
Requeued flit 18203
Requeued flit 18344
Requeued flit 18196
Requeued flit 18202
Requeued flit 18145
Requeued flit 18450
Requeued flit 18517
Requeued flit 18470
Requeued flit 18204
Requeued flit 18511
Requeued flit 18385
Requeued flit 17669
Requeued flit 18476
Requeued flit 18423
Requeued flit 18394
Requeued flit 18666
Requeued flit 18619
Requeued flit 18322
Requeued flit 18704
Requeued flit 18772
Requeued flit 18751
Requeued flit 18657
Requeued flit 18225
Requeued flit 18879
Requeued flit 18766
Requeued flit 18911
Requeued flit 18943
Requeued flit 18603
Requeued flit 18732
Requeued flit 18585
Requeued flit 18853
Requeued flit 18825
Requeued flit 18510
Requeued flit 18443
Requeued flit 18970
Requeued flit 18784
Requeued flit 19030
Requeued flit 18903
Requeued flit 18789
Requeued flit 19066
Requeued flit 18603
Requeued flit 18900
Requeued flit 18636
Requeued flit 18965
Requeued flit 19076
Requeued flit 18916
Requeued flit 19119
Requeued flit 19179
Requeued flit 18978
Requeued flit 19210
Requeued flit 18751
Requeued flit 19073
Requeued flit 19263
Requeued flit 19347
Requeued flit 19337
Requeued flit 19369
Requeued flit 19318
Requeued flit 19030
Requeued flit 19366
Requeued flit 19024
Requeued flit 19180
Requeued flit 19153
Requeued flit 19428
Requeued flit 19359
Requeued flit 19440
Requeued flit 19457
Requeued flit 19137
Requeued flit 19215
Requeued flit 19501
Requeued flit 19460
Requeued flit 19295
Requeued flit 19203
Requeued flit 18994
Requeued flit 19513
Requeued flit 19532
Requeued flit 19542
Requeued flit 19552
Requeued flit 19525
Requeued flit 19547
Requeued flit 19620
Requeued flit 19115
Requeued flit 18878
Requeued flit 19567
Requeued flit 19479
Requeued flit 19484
Requeued flit 19310
Requeued flit 19613
Requeued flit 18773
Requeued flit 19692
Requeued flit 19501
Requeued flit 19764
Requeued flit 19780
Requeued flit 19804
Requeued flit 19496
Requeued flit 19815
Requeued flit 19723
Requeued flit 19436
Requeued flit 19730
Requeued flit 19846
Requeued flit 19203
Requeued flit 19600
Requeued flit 19895
Requeued flit 19795
Requeued flit 19856
Requeued flit 19706
Requeued flit 19329
Requeued flit 19876
Requeued flit 19922
Requeued flit 19848
Requeued flit 19796
Requeued flit 19878
Requeued flit 19891
Requeued flit 19949
Requeued flit 19985
Requeued flit 19831
Requeued flit 19730
Requeued flit 20179
Requeued flit 20069
Requeued flit 20074
Requeued flit 19919
Requeued flit 20239
Requeued flit 19499
Requeued flit 20079
Requeued flit 19809
Requeued flit 20199
Requeued flit 19957
Requeued flit 20031
Requeued flit 20040
Requeued flit 20320
Requeued flit 20036
Requeued flit 20301
Requeued flit 20336
Requeued flit 19922
Requeued flit 20185
Requeued flit 20217
Requeued flit 20327
Requeued flit 20153
Requeued flit 20397
Requeued flit 20337
Requeued flit 20436
Requeued flit 20467
Requeued flit 20334
Requeued flit 20505
Requeued flit 20598
Requeued flit 20536
Requeued flit 20649
Requeued flit 20174
Requeued flit 20660
Requeued flit 20540
Requeued flit 20703
Requeued flit 20624
Requeued flit 20351
Requeued flit 20732
Requeued flit 20650
Requeued flit 20699
Requeued flit 20780
Requeued flit 20766
Requeued flit 20751
Requeued flit 20775
Requeued flit 20476
Requeued flit 20821
Requeued flit 20871
Requeued flit 20701
Requeued flit 20815
Requeued flit 20816
Requeued flit 20886
Requeued flit 20763
Requeued flit 20946
Requeued flit 20959
Requeued flit 20761
Requeued flit 20589
Requeued flit 20969
Requeued flit 20994
Requeued flit 20605
Requeued flit 20948
Requeued flit 20878
Requeued flit 20984
Requeued flit 21008
Requeued flit 21043
Requeued flit 21034
Requeued flit 20820
Requeued flit 20964
Requeued flit 21220
Requeued flit 20917
Requeued flit 21246
Requeued flit 20997
Requeued flit 20907
Requeued flit 20912
Requeued flit 20872
Requeued flit 21036
Requeued flit 21264
Requeued flit 21076
Requeued flit 21360
Requeued flit 20964
Requeued flit 21003
Requeued flit 21390
Requeued flit 21301
Requeued flit 21407
Requeued flit 20989
Requeued flit 21131
Requeued flit 21450
Requeued flit 20980
Requeued flit 21491
Requeued flit 21460
Requeued flit 21387
Requeued flit 21324
Requeued flit 21516
Requeued flit 21157
Requeued flit 21541
Requeued flit 21249
Requeued flit 21551
Requeued flit 21453
Requeued flit 21547
Requeued flit 21192
Requeued flit 21657
Requeued flit 21292
Requeued flit 21254
Requeued flit 21557
Requeued flit 21559
Requeued flit 21218
Requeued flit 21599
Requeued flit 21622
Requeued flit 21143
Requeued flit 21516
Requeued flit 21735
Requeued flit 20868
Requeued flit 21701
Requeued flit 21803
Requeued flit 21656
Requeued flit 21841
Requeued flit 21685
Requeued flit 21794
Requeued flit 21953
Requeued flit 21464
Requeued flit 21748
Requeued flit 21939
Requeued flit 21966
Requeued flit 21931
Requeued flit 21997
Requeued flit 21940
Requeued flit 21893
Requeued flit 22043
Requeued flit 22121
Requeued flit 21755
Requeued flit 22018
Requeued flit 22101
Requeued flit 21595
Requeued flit 21792
Requeued flit 22192
Requeued flit 22127
Requeued flit 21898
Requeued flit 21954
Requeued flit 22172
Requeued flit 22291
Requeued flit 21966
Requeued flit 22344
Requeued flit 22093
Requeued flit 22286
Requeued flit 22262
Requeued flit 22030
Requeued flit 22334
Requeued flit 22365
Requeued flit 21873
Requeued flit 22416
Requeued flit 22429
Requeued flit 22177
Requeued flit 22236
Requeued flit 21816
Requeued flit 22144
Requeued flit 22287
Requeued flit 22426
Requeued flit 22588
Requeued flit 22385
Requeued flit 22216
Requeued flit 22113
Requeued flit 21954
Requeued flit 22597
Requeued flit 22583
Requeued flit 22563
Requeued flit 22483
Requeued flit 22383
Requeued flit 22501
Requeued flit 22669
Requeued flit 22729
Requeued flit 22823
Requeued flit 22210
Requeued flit 22832
Requeued flit 22733
Requeued flit 22644
Requeued flit 22409
Requeued flit 22870
Requeued flit 22559
Requeued flit 22517
Requeued flit 22610
Requeued flit 22902
Requeued flit 23066
Requeued flit 22742
Requeued flit 23061
Requeued flit 23014
Requeued flit 22640
Requeued flit 23024
Requeued flit 22775
Requeued flit 23182
Requeued flit 23177
Requeued flit 22681
Requeued flit 23181
Requeued flit 22927
Requeued flit 23170
Requeued flit 23199
Requeued flit 22965
Requeued flit 23110
Requeued flit 23285
Requeued flit 23084
Requeued flit 23061
Requeued flit 23229
Requeued flit 23185
Requeued flit 23210
Requeued flit 23401
Requeued flit 22864
Requeued flit 23211
Requeued flit 22970
Requeued flit 23151
Requeued flit 22958
Requeued flit 23185
Requeued flit 23403
Requeued flit 23325
Requeued flit 23395
Requeued flit 23129
Requeued flit 23561
Requeued flit 23678
Requeued flit 23403
Requeued flit 23705
Requeued flit 23549
Requeued flit 23011
Requeued flit 23688
Requeued flit 23715
Requeued flit 23185
Requeued flit 23823
Requeued flit 23627
Requeued flit 23854
Requeued flit 23701
Requeued flit 23602
Requeued flit 23511
Requeued flit 23625
Requeued flit 23908
Requeued flit 23644
Requeued flit 23789
Requeued flit 23875
Requeued flit 23788
Requeued flit 23526
Requeued flit 24093
Requeued flit 23985
Requeued flit 24088
Requeued flit 24153
Requeued flit 23895
Requeued flit 24092
Requeued flit 24147
Requeued flit 24103
Requeued flit 23939
Requeued flit 24273
Requeued flit 24084
Requeued flit 23873
Requeued flit 24181
Requeued flit 24191
Requeued flit 24282
Requeued flit 23875
Requeued flit 24162
Requeued flit 23627
Requeued flit 24092
Requeued flit 24334
Requeued flit 24104
Requeued flit 24409
Requeued flit 24120
Requeued flit 24303
Requeued flit 24056
Requeued flit 24513
Requeued flit 24512
Requeued flit 23933
Requeued flit 24495
Requeued flit 24508
Requeued flit 24293
Requeued flit 24380
Requeued flit 24538
Requeued flit 24445
Requeued flit 24029
Requeued flit 24509
Requeued flit 24626
Requeued flit 24457
Requeued flit 24720
Requeued flit 24299
Requeued flit 24618
Requeued flit 24818
Requeued flit 24863
Requeued flit 24746
Requeued flit 24827
Requeued flit 24812
Requeued flit 24666
Requeued flit 24241
Requeued flit 24931
Requeued flit 24755
Requeued flit 24876
Requeued flit 24696
Requeued flit 24951
Requeued flit 24579
Requeued flit 25003
Requeued flit 24987
Requeued flit 24639
Requeued flit 24958
Requeued flit 24029
Requeued flit 25007
Requeued flit 24689
Requeued flit 24818
Requeued flit 25064
Requeued flit 24453
Requeued flit 25080
Requeued flit 24770
Requeued flit 25101
Requeued flit 24952
Requeued flit 24793
Requeued flit 25216
Requeued flit 24570
Requeued flit 25291
Requeued flit 25267
Requeued flit 25246
Requeued flit 25182
Requeued flit 25171
Requeued flit 25202
Requeued flit 25348
Requeued flit 25236
Requeued flit 25087
Requeued flit 24298
Requeued flit 25371
Requeued flit 25095
Requeued flit 25090
Requeued flit 25055
Requeued flit 25561
Requeued flit 25479
Requeued flit 25352
Requeued flit 25281
Requeued flit 25088
Requeued flit 25444
Requeued flit 25527
Requeued flit 25145
Requeued flit 25342
Requeued flit 25346
Requeued flit 25198
Requeued flit 25616
Requeued flit 25411
Requeued flit 25478
Requeued flit 25658
Requeued flit 25497
Requeued flit 25405
Requeued flit 25620
Requeued flit 25608
Requeued flit 25687
Requeued flit 25745
Requeued flit 25677
Requeued flit 25611
Requeued flit 25482
Requeued flit 25007
Requeued flit 25503
Requeued flit 25325
Requeued flit 25612
Requeued flit 25564
Requeued flit 25226
Requeued flit 25775
Requeued flit 25530
Requeued flit 25948
Requeued flit 25491
Requeued flit 25678
Requeued flit 25587
Requeued flit 25832
Requeued flit 25351
Requeued flit 25229
Requeued flit 25728
Requeued flit 25582
Requeued flit 25520
Requeued flit 25690
Requeued flit 25968
Requeued flit 26110
Requeued flit 25611
Requeued flit 26153
Requeued flit 26040
Requeued flit 26183
Requeued flit 26186
Requeued flit 25931
Requeued flit 26035
Requeued flit 26220
Requeued flit 26041
Requeued flit 25594
Requeued flit 25897
Requeued flit 26116
Requeued flit 26254
Requeued flit 25792
Requeued flit 25491
Requeued flit 26155
Requeued flit 26345
Requeued flit 26036
Requeued flit 26140
Requeued flit 25860
Requeued flit 26327
Requeued flit 26336
Requeued flit 26442
Requeued flit 26379
Requeued flit 26032
Requeued flit 26412
Requeued flit 26077
Requeued flit 26501
Requeued flit 26436
Requeued flit 26366
Requeued flit 26455
Requeued flit 26624
Requeued flit 26453
Requeued flit 26654
Requeued flit 26337
Requeued flit 26511
Requeued flit 26730
Requeued flit 26616
Requeued flit 26637
Requeued flit 26764
Requeued flit 26835
Requeued flit 26851
Requeued flit 26698
Requeued flit 26573
Requeued flit 26454
Requeued flit 26846
Requeued flit 26836
Requeued flit 26920
Requeued flit 26811
Requeued flit 26422
Requeued flit 26934
Requeued flit 26797
Requeued flit 26550
Requeued flit 26979
Requeued flit 26668
Requeued flit 26969
Requeued flit 26666
Requeued flit 27021
Requeued flit 26937
Requeued flit 26806
Requeued flit 26264
Requeued flit 26987
Requeued flit 27120
Requeued flit 26776
Requeued flit 27165
Requeued flit 27201
Requeued flit 27234
Requeued flit 26738
Requeued flit 26925
Requeued flit 26924
Requeued flit 27118
Requeued flit 27345
Requeued flit 27192
Requeued flit 26969
Requeued flit 27269
Requeued flit 27409
Requeued flit 27472
Requeued flit 27522
Requeued flit 27153
Requeued flit 27437
Requeued flit 27324
Requeued flit 26950
Requeued flit 27373
Requeued flit 27120
Requeued flit 27173
Requeued flit 27282
Requeued flit 27485
Requeued flit 27711
Requeued flit 27645
Requeued flit 27528
Requeued flit 27382
Requeued flit 27189
Requeued flit 27481
Requeued flit 27371
Requeued flit 27687
Requeued flit 27365
Requeued flit 27468
Requeued flit 27506
Requeued flit 27561
Requeued flit 27761
Requeued flit 27869
Requeued flit 27728
Requeued flit 27555
Requeued flit 27843
Requeued flit 27893
Requeued flit 27464
Requeued flit 27858
Requeued flit 28005
Requeued flit 28071
Requeued flit 27756
Requeued flit 27936
Requeued flit 28151
Requeued flit 28082
Requeued flit 27974
Requeued flit 27963
Requeued flit 28143
Requeued flit 28188
Requeued flit 27978
Requeued flit 28179
Requeued flit 28205
Requeued flit 28110
Requeued flit 28197
Requeued flit 28256
Requeued flit 28290
Requeued flit 28308
Requeued flit 28340
Requeued flit 28231
Requeued flit 27935
Requeued flit 28345
Requeued flit 28139
Requeued flit 27712
Requeued flit 27993
Requeued flit 28467
Requeued flit 28226
Requeued flit 28052
Requeued flit 28166
Requeued flit 28304
Requeued flit 28498
Requeued flit 27829
Requeued flit 28107
Requeued flit 28560
Requeued flit 28433
Requeued flit 28566
Requeued flit 28529
Requeued flit 28260
Requeued flit 28215
Requeued flit 28473
Requeued flit 28619
Requeued flit 28467
Requeued flit 28555
Requeued flit 28582
Requeued flit 27854
Requeued flit 28697
Requeued flit 28172
Requeued flit 28754
Requeued flit 28468
Requeued flit 28781
Requeued flit 28719
Requeued flit 28797
Requeued flit 28706
Requeued flit 28780
Requeued flit 28792
Requeued flit 28377
Requeued flit 28082
Requeued flit 28730
Requeued flit 28456
Requeued flit 28750
Requeued flit 28865
Requeued flit 28870
Requeued flit 28895
Requeued flit 28107
Requeued flit 28803
Requeued flit 28709
Requeued flit 28686
Requeued flit 28964
Requeued flit 28777
Requeued flit 28889
Requeued flit 28410
Requeued flit 28869
Requeued flit 28971
Requeued flit 28903
Requeued flit 29061
Requeued flit 28748
Requeued flit 28847
Requeued flit 28828
Requeued flit 28921
Requeued flit 28729
Requeued flit 28711
Requeued flit 29080
Requeued flit 29175
Requeued flit 29158
Requeued flit 28719
Requeued flit 29294
Requeued flit 29258
Requeued flit 29290
Requeued flit 29278
Requeued flit 29049
Requeued flit 28855
Requeued flit 29073
Requeued flit 29213
Requeued flit 29283
Requeued flit 29372
Requeued flit 28965
Requeued flit 29320
Requeued flit 28875
Requeued flit 28948
Requeued flit 29395
Requeued flit 29298
Requeued flit 29135
Requeued flit 29421
Requeued flit 29301
Requeued flit 29521
Requeued flit 29540
Requeued flit 29089
Requeued flit 29226
Requeued flit 29187
Requeued flit 29602
Requeued flit 29366
Requeued flit 29241
Requeued flit 29606
Requeued flit 29497
Requeued flit 29654
Requeued flit 29784
Requeued flit 29339
Requeued flit 29785
Requeued flit 29809
Requeued flit 29104
Requeued flit 29652
Requeued flit 29561
Requeued flit 29446
Requeued flit 29515
Requeued flit 29697
Requeued flit 29577
Requeued flit 29135
Requeued flit 29802
Requeued flit 29926
Requeued flit 29957
Requeued flit 29832
Requeued flit 29644
Requeued flit 29874
Requeued flit 29862
Requeued flit 29711
Requeued flit 29913
Requeued flit 30048
Requeued flit 29917
Requeued flit 30081
Requeued flit 29852
Requeued flit 29898
Requeued flit 30113
Requeued flit 30122
Requeued flit 30060
Requeued flit 29773
Requeued flit 30129
Requeued flit 30126
Requeued flit 30047
Requeued flit 30148
Requeued flit 30175
Requeued flit 30195
Requeued flit 30086
Requeued flit 29922
Requeued flit 30226
Requeued flit 29866
Requeued flit 29855
Requeued flit 29780
Requeued flit 30047
Requeued flit 30187
Requeued flit 30212
Requeued flit 29910
Requeued flit 30235
Requeued flit 30012
Requeued flit 30290
Requeued flit 30060
Requeued flit 30414
Requeued flit 30377
Requeued flit 30459
Requeued flit 30350
Requeued flit 30105
Requeued flit 30154
Requeued flit 30082
Requeued flit 30497
Requeued flit 30257
Requeued flit 30520
Requeued flit 30302
Requeued flit 30553
Requeued flit 30428
Requeued flit 30674
Requeued flit 30668
Requeued flit 30300
Requeued flit 30773
Requeued flit 30573
Requeued flit 30569
Requeued flit 30314
Requeued flit 30618
Requeued flit 30654
Requeued flit 30737
Requeued flit 30761
Requeued flit 30922
Requeued flit 30252
Requeued flit 30511
Requeued flit 30864
Requeued flit 30447
Requeued flit 30927
Requeued flit 30791
Requeued flit 30773
Requeued flit 30733
Requeued flit 30463
Requeued flit 30727
Requeued flit 31080
Requeued flit 30993
Requeued flit 30605
Requeued flit 30801
Requeued flit 30989
Requeued flit 30915
Requeued flit 31023
Requeued flit 31111
Requeued flit 31163
Requeued flit 30842
Requeued flit 31035
Requeued flit 31038
Requeued flit 31050
Requeued flit 31177
Requeued flit 31124
Requeued flit 30887
Requeued flit 30113
Requeued flit 31033
Requeued flit 30618
Requeued flit 31132
Requeued flit 31359
Requeued flit 31344
Requeued flit 30834
Requeued flit 31322
Requeued flit 31287
Requeued flit 31358
Requeued flit 31366
Requeued flit 31368
Requeued flit 31295
Requeued flit 31177
Requeued flit 31505
Requeued flit 31315
Requeued flit 31063
Requeued flit 31502
Requeued flit 30618
Requeued flit 31532
Requeued flit 31610
Requeued flit 31599
Requeued flit 31243
Requeued flit 31692
Requeued flit 31485
Requeued flit 31732
Requeued flit 31711
Requeued flit 31616
Requeued flit 30618
Requeued flit 31758
Requeued flit 31793
Requeued flit 31453
Requeued flit 31637
Requeued flit 31382
Requeued flit 31294
Requeued flit 31488
Requeued flit 31610
Requeued flit 31593
Requeued flit 31905
Requeued flit 31881
Requeued flit 31878
Requeued flit 31933
Requeued flit 31822
Requeued flit 31914
Requeued flit 31942
Requeued flit 31863
Requeued flit 31993
Requeued flit 31774
Requeued flit 31955
Requeued flit 31981
Requeued flit 31848
Requeued flit 31999
Requeued flit 32020
Requeued flit 32028
Requeued flit 31660
Requeued flit 31901
Requeued flit 31624
Requeued flit 31956
Requeued flit 32116
Requeued flit 32143
Requeued flit 31832
Requeued flit 32086
Requeued flit 32033
Requeued flit 32219
Requeued flit 32147
Requeued flit 32258
Requeued flit 32113
Requeued flit 32208
Requeued flit 31972
Requeued flit 31976
Requeued flit 32376
Requeued flit 32031
Requeued flit 32401
Requeued flit 32180
Requeued flit 32323
Requeued flit 32169
Requeued flit 32284
Requeued flit 31995
Requeued flit 32460
Requeued flit 32345
Requeued flit 32516
Requeued flit 32276
Requeued flit 32462
Requeued flit 32271
Requeued flit 32396
Requeued flit 32655
Requeued flit 32373
Requeued flit 32456
Requeued flit 32377
Requeued flit 32703
Requeued flit 32297
Requeued flit 32507
Requeued flit 32610
Requeued flit 32540
Requeued flit 32754
Requeued flit 32801
Requeued flit 32735
Requeued flit 32668
Requeued flit 32164
Requeued flit 32890
Requeued flit 32740
Requeued flit 32447
Requeued flit 32818
Requeued flit 32697
Requeued flit 32482
Requeued flit 32826
Requeued flit 32977
Requeued flit 32789
Requeued flit 32748
Requeued flit 32943
Requeued flit 32709
Requeued flit 32370
Requeued flit 32820
Requeued flit 32915
Requeued flit 33028
Requeued flit 32759
Requeued flit 33118
Requeued flit 32874
Requeued flit 32562
Requeued flit 32728
Requeued flit 33160
Requeued flit 33238
Requeued flit 33202
Requeued flit 33317
Requeued flit 33273
Requeued flit 33201
Requeued flit 33288
Requeued flit 33081
Requeued flit 33276
Requeued flit 33339
Requeued flit 33198
Requeued flit 33236
Requeued flit 33316
Requeued flit 33299
Requeued flit 33029
Requeued flit 33230
Requeued flit 33269
Requeued flit 33560
Requeued flit 33452
Requeued flit 33536
Requeued flit 33241
Requeued flit 33504
Requeued flit 33607
Requeued flit 32970
Requeued flit 33487
Requeued flit 33426
Requeued flit 33052
Requeued flit 33364
Requeued flit 33489
Requeued flit 33437
Requeued flit 33727
Requeued flit 33712
Requeued flit 33698
Requeued flit 33525
Requeued flit 33644
Requeued flit 33423
Requeued flit 33748
Requeued flit 33786
Requeued flit 33516
Requeued flit 33750
Requeued flit 33847
Requeued flit 33471
Requeued flit 33829
Requeued flit 33917
Requeued flit 33586
Requeued flit 33824
Requeued flit 33682
Requeued flit 33656
Requeued flit 33985
Requeued flit 33980
Requeued flit 33433
Requeued flit 33450
Requeued flit 33869
Requeued flit 34015
Requeued flit 33890
Requeued flit 33487
Requeued flit 34031
Requeued flit 33958
Requeued flit 33781
Requeued flit 33486
Requeued flit 34147
Requeued flit 34189
Requeued flit 33966
Requeued flit 34082
Requeued flit 34069
Requeued flit 34247
Requeued flit 34106
Requeued flit 34256
Requeued flit 34097
Requeued flit 33666
Requeued flit 34173
Requeued flit 34169
Requeued flit 33543
Requeued flit 34203
Requeued flit 34253
Requeued flit 33913
Requeued flit 33471
Requeued flit 33568
Requeued flit 33988
Requeued flit 34189
Requeued flit 34387
Requeued flit 34171
Requeued flit 33930
Requeued flit 34439
Requeued flit 34075
Requeued flit 34294
Requeued flit 33874
Requeued flit 34137
Requeued flit 34488
Requeued flit 34437
Requeued flit 34520
Requeued flit 34053
Requeued flit 33969
Requeued flit 34335
Requeued flit 34394
Requeued flit 33832
Requeued flit 34396
Requeued flit 34261
Requeued flit 34422
Requeued flit 33875
Requeued flit 34185
Requeued flit 34418
Requeued flit 34449
Requeued flit 34189
Requeued flit 34200
Requeued flit 34609
Requeued flit 34295
Requeued flit 34685
Requeued flit 34627
Requeued flit 34751
Requeued flit 34666
Requeued flit 34684
Requeued flit 34610
Requeued flit 34777
Requeued flit 34563
Requeued flit 34752
Requeued flit 34708
Requeued flit 34513
Requeued flit 34271
Requeued flit 34865
Requeued flit 34599
Requeued flit 34918
Requeued flit 34627
Requeued flit 34891
Requeued flit 34745
Requeued flit 35028
Requeued flit 35049
Requeued flit 34920
Requeued flit 34951
Requeued flit 35065
Requeued flit 34605
Requeued flit 34947
Requeued flit 34731
Requeued flit 35169
Requeued flit 34954
Requeued flit 34836
Requeued flit 35133
Requeued flit 34612
Requeued flit 35049
Requeued flit 34887
Requeued flit 35223
Requeued flit 34767
Requeued flit 35162
Requeued flit 35202
Requeued flit 35268
Requeued flit 35228
Requeued flit 35326
Requeued flit 34907
Requeued flit 35216
Requeued flit 35194
Requeued flit 35065
Requeued flit 34747
Requeued flit 34957
Requeued flit 35124
Requeued flit 35049
Requeued flit 35430
Requeued flit 35266
Requeued flit 35215
Requeued flit 35501
Requeued flit 35236
Requeued flit 35507
Requeued flit 35513
Requeued flit 34907
Requeued flit 35336
Requeued flit 35268
Requeued flit 35652
Requeued flit 35317
Requeued flit 35298
Requeued flit 35435
Requeued flit 35436
Requeued flit 35523
Requeued flit 35581
Requeued flit 35801
Requeued flit 35137
Requeued flit 35867
Requeued flit 35474
Requeued flit 35806
Requeued flit 35698
Requeued flit 35608
Requeued flit 35336
Requeued flit 35984
Requeued flit 35813
Requeued flit 35523
Requeued flit 35998
Requeued flit 35741
Requeued flit 36023
Requeued flit 35635
Requeued flit 35790
Requeued flit 36056
Requeued flit 36040
Requeued flit 35899
Requeued flit 36167
Requeued flit 36152
Requeued flit 36245
Requeued flit 36252
Requeued flit 36115
Requeued flit 36131
Requeued flit 36022
Requeued flit 36015
Requeued flit 36146
Requeued flit 36287
Requeued flit 36368
Requeued flit 36397
Requeued flit 36279
Requeued flit 36012
Requeued flit 36122
Requeued flit 36312
Requeued flit 35768
Requeued flit 36325
Requeued flit 36384
Requeued flit 36359
Requeued flit 36564
Requeued flit 36330
Requeued flit 36544
Requeued flit 36425
Requeued flit 36362
Requeued flit 36181
Requeued flit 35968
Requeued flit 36638
Requeued flit 36218
Requeued flit 35991
Requeued flit 36382
Requeued flit 36651
Requeued flit 36542
Requeued flit 36801
Requeued flit 36714
Requeued flit 36820
Requeued flit 36727
Requeued flit 36755
Requeued flit 36718
Requeued flit 36850
Requeued flit 36866
Requeued flit 36843
Requeued flit 36867
Requeued flit 36692
Requeued flit 36915
Requeued flit 36869
Requeued flit 36213
Requeued flit 36670
Requeued flit 36688
Requeued flit 37045
Requeued flit 37042
Requeued flit 36417
Requeued flit 36787
Requeued flit 36965
Requeued flit 37001
Requeued flit 37178
Requeued flit 37036
Requeued flit 36849
Requeued flit 37196
Requeued flit 36691
Requeued flit 36843
Requeued flit 37236
Requeued flit 36899
Requeued flit 37269
Requeued flit 36980
Requeued flit 37201
Requeued flit 37250
Requeued flit 37261
Requeued flit 37185
Requeued flit 36999
Requeued flit 36869
Requeued flit 37209
Requeued flit 37205
Requeued flit 37371
Requeued flit 36845
Requeued flit 37445
Requeued flit 37126
Requeued flit 37119
Requeued flit 37275
Requeued flit 37516
Requeued flit 37572
Requeued flit 37598
Requeued flit 37219
Requeued flit 37290
Requeued flit 37233
Requeued flit 37621
Requeued flit 37666
Requeued flit 37732
Requeued flit 37246
Requeued flit 37708
Requeued flit 37335
Requeued flit 37163
Requeued flit 37815
Requeued flit 37758
Requeued flit 37839
Requeued flit 37667
Requeued flit 37828
Requeued flit 37885
Requeued flit 37460
Requeued flit 37140
Requeued flit 37909
Requeued flit 37824
Requeued flit 37674
Requeued flit 37817
Requeued flit 37940
Requeued flit 37677
Requeued flit 37777
Requeued flit 37981
Requeued flit 38001
Requeued flit 37778
Requeued flit 37945
Requeued flit 38037
Requeued flit 37999
Requeued flit 37826
Requeued flit 37869
Requeued flit 37539
Requeued flit 37140
Requeued flit 37068
Requeued flit 38093
Requeued flit 37828
Requeued flit 38074
Requeued flit 38095
Requeued flit 38080
Requeued flit 38219
Requeued flit 37783
Requeued flit 38232
Requeued flit 38016
Requeued flit 38284
Requeued flit 38201
Requeued flit 37981
Requeued flit 38306
Requeued flit 38103
Requeued flit 38136
Requeued flit 38337
Requeued flit 38100
Requeued flit 38054
Requeued flit 38440
Requeued flit 38384
Requeued flit 38386
Requeued flit 38321
Requeued flit 38411
Requeued flit 37979
Requeued flit 38341
Requeued flit 38517
Requeued flit 38486
Requeued flit 38301
Requeued flit 38379
Requeued flit 38587
Requeued flit 37953
Requeued flit 38620
Requeued flit 38423
Requeued flit 38568
Requeued flit 38408
Requeued flit 38656
Requeued flit 38498
Requeued flit 38614
Requeued flit 38639
Requeued flit 38730
Requeued flit 38524
Requeued flit 38691
Requeued flit 38540
Requeued flit 38575
Requeued flit 38808
Requeued flit 38663
Requeued flit 38662
Requeued flit 38477
Requeued flit 38479
Requeued flit 38337
Requeued flit 38950
Requeued flit 38955
Requeued flit 38731
Requeued flit 38909
Requeued flit 38529
Requeued flit 38920
Requeued flit 38434
Requeued flit 39064
Requeued flit 39060
Requeued flit 39066
Requeued flit 38970
Requeued flit 38875
Requeued flit 38764
Requeued flit 38917
Requeued flit 39075
Requeued flit 38778
Requeued flit 38889
Requeued flit 39170
Requeued flit 38950
Requeued flit 38274
Requeued flit 38830
Requeued flit 39268
Requeued flit 39190
Requeued flit 39139
Requeued flit 39214
Requeued flit 39281
Requeued flit 39346
Requeued flit 39180
Requeued flit 38794
Requeued flit 39372
Requeued flit 39249
Requeued flit 39344
Requeued flit 39195
Requeued flit 39241
Requeued flit 39494
Requeued flit 39340
Requeued flit 39075
Requeued flit 39572
Requeued flit 39283
Requeued flit 39491
Requeued flit 39406
Requeued flit 39473
Requeued flit 39354
Requeued flit 39730
Requeued flit 39778
Requeued flit 39293
Requeued flit 39572
Requeued flit 39259
Requeued flit 39816
Requeued flit 39762
Requeued flit 39619
Requeued flit 39804
Requeued flit 39844
Requeued flit 39871
Requeued flit 39841
Requeued flit 39193
Requeued flit 39817
Requeued flit 39634
Requeued flit 39584
Requeued flit 39640
Requeued flit 39298
Requeued flit 39937
Requeued flit 40006
Requeued flit 39662
Requeued flit 39358
Requeued flit 39646
Requeued flit 40005
Requeued flit 39542
Requeued flit 39778
Requeued flit 39605
Requeued flit 39657
Requeued flit 40034
Requeued flit 39966
Requeued flit 40100
Requeued flit 40165
Requeued flit 39654
Requeued flit 39677
Requeued flit 40061
Requeued flit 40111
Requeued flit 39913
Requeued flit 39748
Requeued flit 40227
Requeued flit 40057
Requeued flit 39892
Requeued flit 39662
Requeued flit 40272
Requeued flit 39997
Requeued flit 40348
Requeued flit 40030
Requeued flit 40350
Requeued flit 40352
Requeued flit 40250
Requeued flit 40313
Requeued flit 40327
Requeued flit 40401
Requeued flit 40144
Requeued flit 40379
Requeued flit 40225
Requeued flit 40277
Requeued flit 40009
Requeued flit 39920
Requeued flit 40430
Requeued flit 40390
Requeued flit 40439
Requeued flit 39938
Requeued flit 40462
Requeued flit 40490
Requeued flit 40173
Requeued flit 40384
Requeued flit 40259
Requeued flit 40525
Requeued flit 40121
Requeued flit 39785
Requeued flit 40520
Requeued flit 40167
Requeued flit 40515
Requeued flit 40460
Requeued flit 40589
Requeued flit 40533
Requeued flit 40127
Requeued flit 40421
Requeued flit 40507
Requeued flit 40429
Requeued flit 40121
Requeued flit 40361
Requeued flit 40463
Requeued flit 40461
Requeued flit 40656
Requeued flit 40311
Requeued flit 40456
Requeued flit 40334
Requeued flit 40479
Requeued flit 40491
Requeued flit 40713
Requeued flit 40639
Requeued flit 40854
Requeued flit 40625
Requeued flit 40701
Requeued flit 40484
Requeued flit 40722
Requeued flit 40121
Requeued flit 40709
Requeued flit 40431
Requeued flit 40556
Requeued flit 40957
Requeued flit 40963
Requeued flit 40651
Requeued flit 40167
Requeued flit 41009
Requeued flit 40762
Requeued flit 40948
Requeued flit 40907
Requeued flit 41092
Requeued flit 40970
Requeued flit 40922
Requeued flit 40470
Requeued flit 40976
Requeued flit 40956
Requeued flit 40993
Requeued flit 41044
Requeued flit 41198
Requeued flit 41222
Requeued flit 40967
Requeued flit 40926
Requeued flit 41257
Requeued flit 40922
Requeued flit 40990
Requeued flit 41284
Requeued flit 41256
Requeued flit 41008
Requeued flit 41235
Requeued flit 41070
Requeued flit 40724
Requeued flit 41194
Requeued flit 41053
Requeued flit 41292
Requeued flit 41236
Requeued flit 41076
Requeued flit 41371
Requeued flit 41506
Requeued flit 41171
Requeued flit 41380
Requeued flit 41303
Requeued flit 41628
Requeued flit 41579
Requeued flit 41511
Requeued flit 41060
Requeued flit 41321
Requeued flit 41646
Requeued flit 41151
Requeued flit 41750
Requeued flit 41604
Requeued flit 41351
Requeued flit 41762
Requeued flit 41768
Requeued flit 41642
Requeued flit 41390
Requeued flit 40967
Requeued flit 41070
Requeued flit 41553
Requeued flit 41864
Requeued flit 41860
Requeued flit 41848
Requeued flit 41951
Requeued flit 40967
Requeued flit 41949
Requeued flit 41620
Requeued flit 41945
Requeued flit 42015
Requeued flit 41883
Requeued flit 42056
Requeued flit 42059
Requeued flit 41779
Requeued flit 41785
Requeued flit 41673
Requeued flit 41553
Requeued flit 41782
Requeued flit 42188
Requeued flit 42176
Requeued flit 42241
Requeued flit 42132
Requeued flit 41980
Requeued flit 42081
Requeued flit 42293
Requeued flit 42236
Requeued flit 42330
Requeued flit 41953
Requeued flit 42386
Requeued flit 42184
Requeued flit 42428
Requeued flit 42338
Requeued flit 41774
Requeued flit 42414
Requeued flit 42380
Requeued flit 41786
Requeued flit 42405
Requeued flit 42293
Requeued flit 42312
Requeued flit 42434
Requeued flit 42420
Requeued flit 41782
Requeued flit 42330
Requeued flit 42242
Requeued flit 42197
Requeued flit 42060
Requeued flit 42540
Requeued flit 42595
Requeued flit 42458
Requeued flit 42166
Requeued flit 42417
Requeued flit 42559
Requeued flit 41976
Requeued flit 42539
Requeued flit 42024
Requeued flit 42534
Requeued flit 42451
Requeued flit 42713
Requeued flit 42179
Requeued flit 42258
Requeued flit 42558
Requeued flit 42724
Requeued flit 42698
Requeued flit 42257
Requeued flit 42786
Requeued flit 42795
Requeued flit 42434
Requeued flit 42796
Requeued flit 42432
Requeued flit 42707
Requeued flit 42635
Requeued flit 42245
Requeued flit 42665
Requeued flit 42799
Requeued flit 42494
Requeued flit 42568
Requeued flit 42969
Requeued flit 42950
Requeued flit 42924
Requeued flit 43014
Requeued flit 43021
Requeued flit 43045
Requeued flit 42973
Requeued flit 42581
Requeued flit 43094
Requeued flit 43141
Requeued flit 43150
Requeued flit 43156
Requeued flit 43077
Requeued flit 43078
Requeued flit 43218
Requeued flit 43145
Requeued flit 42723
Requeued flit 42825
Requeued flit 43252
Requeued flit 43187
Requeued flit 43166
Requeued flit 43199
Requeued flit 43320
Requeued flit 43111
Requeued flit 43229
Requeued flit 43322
Requeued flit 43018
Requeued flit 43148
Requeued flit 43356
Requeued flit 43329
Requeued flit 43393
Requeued flit 43295
Requeued flit 43226
Requeued flit 43056
Requeued flit 43334
Requeued flit 43515
Requeued flit 43289
Requeued flit 43541
Requeued flit 43441
Requeued flit 43553
Requeued flit 43637
Requeued flit 43255
Requeued flit 42941
Requeued flit 43613
Requeued flit 43363
Requeued flit 43385
Requeued flit 43483
Requeued flit 43633
Requeued flit 43425
Requeued flit 43746
Requeued flit 43700
Requeued flit 43815
Requeued flit 43561
Requeued flit 43484
Requeued flit 43672
Requeued flit 43704
Requeued flit 43545
Requeued flit 43706
Requeued flit 43634
Requeued flit 43424
Requeued flit 43661
Requeued flit 43781
Requeued flit 43490
Requeued flit 43464
Requeued flit 43835
Requeued flit 43912
Requeued flit 43964
Requeued flit 43839
Requeued flit 44072
Requeued flit 43862
Requeued flit 43928
Requeued flit 44126
Requeued flit 43814
Requeued flit 44134
Requeued flit 43909
Requeued flit 43873
Requeued flit 44215
Requeued flit 43917
Requeued flit 43905
Requeued flit 43971
Requeued flit 43679
Requeued flit 44050
Requeued flit 43860
Requeued flit 44104
Requeued flit 43899
Requeued flit 44316
Requeued flit 44062
Requeued flit 44100
Requeued flit 44332
Requeued flit 44218
Requeued flit 43937
Requeued flit 44297
Requeued flit 44171
Requeued flit 44249
Requeued flit 44117
Requeued flit 44449
Requeued flit 44411
Requeued flit 43797
Requeued flit 44497
Requeued flit 44092
Requeued flit 44160
Requeued flit 43725
Requeued flit 44573
Requeued flit 44510
Requeued flit 44403
Requeued flit 43835
Requeued flit 44543
Requeued flit 44640
Requeued flit 44480
Requeued flit 44493
Requeued flit 44679
Requeued flit 44299
Requeued flit 44669
Requeued flit 44689
Requeued flit 44700
Requeued flit 44674
Requeued flit 44630
Requeued flit 44761
Requeued flit 44509
Requeued flit 44320
Requeued flit 44368
Requeued flit 44819
Requeued flit 44840
Requeued flit 44531
Requeued flit 44662
Requeued flit 44830
Requeued flit 44661
Requeued flit 44719
Requeued flit 44701
Requeued flit 44914
Requeued flit 44430
Requeued flit 44549
Requeued flit 44313
Requeued flit 44652
Requeued flit 44948
Requeued flit 45018
Requeued flit 44765
Requeued flit 45022
Requeued flit 45000
Requeued flit 44925
Requeued flit 45006
Requeued flit 45081
Requeued flit 44687
Requeued flit 44936
Requeued flit 44369
Requeued flit 44964
Requeued flit 44852
Requeued flit 45024
Requeued flit 44971
Requeued flit 45176
Requeued flit 45031
Requeued flit 45183
Requeued flit 44998
Requeued flit 45164
Requeued flit 45139
Requeued flit 44752
Requeued flit 45099
Requeued flit 45049
Requeued flit 44929
Requeued flit 45390
Requeued flit 45305
Requeued flit 45465
Requeued flit 45482
Requeued flit 45522
Requeued flit 45220
Requeued flit 45504
Requeued flit 45272
Requeued flit 45263
Requeued flit 44972
Requeued flit 45480
Requeued flit 45616
Requeued flit 45462
Requeued flit 45584
Requeued flit 45655
Requeued flit 45419
Requeued flit 45479
Requeued flit 45483
Requeued flit 45096
Requeued flit 45099
Requeued flit 45561
Requeued flit 45695
Requeued flit 45607
Requeued flit 45657
Requeued flit 45703
Requeued flit 45266
Requeued flit 45707
Requeued flit 45817
Requeued flit 45724
Requeued flit 45273
Requeued flit 45775
Requeued flit 45730
Requeued flit 45864
Requeued flit 45894
Requeued flit 45900
Requeued flit 45716
Requeued flit 45564
Requeued flit 45678
Requeued flit 45390
Requeued flit 45950
Requeued flit 45731
Requeued flit 45837
Requeued flit 45347
Requeued flit 45675
Requeued flit 46025
Requeued flit 45581
Requeued flit 45533
Requeued flit 46064
Requeued flit 45327
Requeued flit 46040
Requeued flit 45954
Requeued flit 45532
Requeued flit 46032
Requeued flit 46087
Requeued flit 45641
Requeued flit 45852
Requeued flit 46126
Requeued flit 45514
Requeued flit 45836
Requeued flit 45917
Requeued flit 45988
Requeued flit 45912
Requeued flit 45765
Requeued flit 45796
Requeued flit 46030
Requeued flit 46187
Requeued flit 45896
Requeued flit 45992
Requeued flit 45795
Requeued flit 46321
Requeued flit 46244
Requeued flit 46059
Requeued flit 46008
Requeued flit 46069
Requeued flit 46194
Requeued flit 46343
Requeued flit 46006
Requeued flit 46159
Requeued flit 46071
Requeued flit 46362
Requeued flit 46299
Requeued flit 46406
Requeued flit 46575
Requeued flit 46101
Requeued flit 46491
Requeued flit 46524
Requeued flit 46584
Requeued flit 46311
Requeued flit 46501
Requeued flit 46723
Requeued flit 46698
Requeued flit 46558
Requeued flit 46632
Requeued flit 46396
Requeued flit 46403
Requeued flit 46420
Requeued flit 46752
Requeued flit 46726
Requeued flit 46707
Requeued flit 46508
Requeued flit 46591
Requeued flit 46601
Requeued flit 46792
Requeued flit 46950
Requeued flit 46477
Requeued flit 46650
Requeued flit 46604
Requeued flit 46795
Requeued flit 46882
Requeued flit 46923
Requeued flit 46687
Requeued flit 46739
Requeued flit 46268
Requeued flit 46932
Requeued flit 46921
Requeued flit 46471
Requeued flit 46985
Requeued flit 47042
Requeued flit 46406
Requeued flit 46956
Requeued flit 47113
Requeued flit 46571
Requeued flit 47021
Requeued flit 47031
Requeued flit 47103
Requeued flit 46874
Requeued flit 47065
Requeued flit 47128
Requeued flit 47221
Requeued flit 47205
Requeued flit 47321
Requeued flit 46924
Requeued flit 47207
Requeued flit 47218
Requeued flit 46268
Requeued flit 47504
Requeued flit 47482
Requeued flit 47554
Requeued flit 47531
Requeued flit 47379
Requeued flit 47027
Requeued flit 47648
Requeued flit 47656
Requeued flit 47477
Requeued flit 47462
Requeued flit 47610
Requeued flit 47175
Requeued flit 47519
Requeued flit 47662
Requeued flit 47759
Requeued flit 47535
Requeued flit 46989
Requeued flit 47585
Requeued flit 47587
Requeued flit 47806
Requeued flit 47845
Requeued flit 47763
Requeued flit 47834
Requeued flit 47769
Requeued flit 47744
Requeued flit 47473
Requeued flit 47900
Requeued flit 47964
Requeued flit 47977
Requeued flit 47981
Requeued flit 48010
Requeued flit 47960
Requeued flit 47667
Requeued flit 47974
Requeued flit 47813
Requeued flit 48112
Requeued flit 48053
Requeued flit 47989
Requeued flit 47795
Requeued flit 47710
Requeued flit 48067
Requeued flit 48185
Requeued flit 48272
Requeued flit 48287
Requeued flit 48119
Requeued flit 48337
Requeued flit 48311
Requeued flit 48214
Requeued flit 48143
Requeued flit 48345
Requeued flit 48306
Requeued flit 48078
Requeued flit 48391
Requeued flit 48237
Requeued flit 48224
Requeued flit 48430
Requeued flit 48431
Requeued flit 48263
Requeued flit 48304
Requeued flit 48243
Requeued flit 47977
Requeued flit 48419
Requeued flit 48338
Requeued flit 48432
Requeued flit 48180
Requeued flit 48372
Requeued flit 48572
Requeued flit 48529
Requeued flit 48427
Requeued flit 48496
Requeued flit 48586
Requeued flit 48506
Requeued flit 48510
Requeued flit 48402
Requeued flit 48387
Requeued flit 48615
Requeued flit 48251
Requeued flit 48489
Requeued flit 48287
Requeued flit 48391
Requeued flit 48691
Requeued flit 48336
Requeued flit 48579
Requeued flit 48679
Requeued flit 48515
Requeued flit 48398
Requeued flit 48809
Requeued flit 48651
Requeued flit 48825
Requeued flit 48858
Requeued flit 48837
Requeued flit 48082
Requeued flit 48797
Requeued flit 48902
Requeued flit 48530
Requeued flit 48973
Requeued flit 48835
Requeued flit 48774
Requeued flit 48791
Requeued flit 48988
Requeued flit 48539
Requeued flit 49041
Requeued flit 48408
Requeued flit 49102
Requeued flit 48941
Requeued flit 48917
Requeued flit 48843
Requeued flit 48895
Requeued flit 49198
Requeued flit 49169
Requeued flit 49240
Requeued flit 49251
Requeued flit 48901
Requeued flit 49054
Requeued flit 48890
Requeued flit 49291
Requeued flit 48680
Requeued flit 49330
Requeued flit 49345
Requeued flit 49235
Requeued flit 49303
Requeued flit 49430
Requeued flit 48960
Requeued flit 49444
Requeued flit 48539
Requeued flit 49080
Requeued flit 49201
Requeued flit 49475
Requeued flit 49155
Requeued flit 49549
Requeued flit 48842
Requeued flit 49096
Requeued flit 49589
Requeued flit 49578
Requeued flit 49235
Requeued flit 49315
Requeued flit 49312
Requeued flit 49326
Requeued flit 49652
Requeued flit 49607
Requeued flit 49202
Requeued flit 49280
Requeued flit 49715
Requeued flit 49467
Requeued flit 49752
Requeued flit 49515
Requeued flit 49728
Requeued flit 49810
Requeued flit 49760
Requeued flit 49569
Requeued flit 49819
Requeued flit 49686
Requeued flit 49520
Requeued flit 49829
Requeued flit 49578
Requeued flit 49326
Requeued flit 49555
Requeued flit 49190
Requeued flit 49752
Requeued flit 49932
Requeued flit 50075
Requeued flit 49916
Requeued flit 49783
Requeued flit 50065
Requeued flit 50019
Requeued flit 49971
Requeued flit 49757
Requeued flit 49998
Requeued flit 50153
Requeued flit 50132
Requeued flit 49696
Requeued flit 49753
Requeued flit 49975
Requeued flit 50090
Requeued flit 49695
Requeued flit 49952
Requeued flit 50173
Requeued flit 50283
Requeued flit 49982
Requeued flit 50246
Requeued flit 50095
Requeued flit 50015
Requeued flit 50210
Requeued flit 50437
Requeued flit 50079
Requeued flit 50431
Requeued flit 50267
Requeued flit 49930
Requeued flit 50250
Requeued flit 50430
Requeued flit 50519
Requeued flit 50524
Requeued flit 50507
Requeued flit 50236
Requeued flit 50047
Requeued flit 50008
Requeued flit 50550
Requeued flit 50397
Requeued flit 50340
Requeued flit 49816
Requeued flit 50442
Requeued flit 50616
Requeued flit 50665
Requeued flit 50642
Requeued flit 50516
Requeued flit 50431
Requeued flit 50117
Requeued flit 50690
Requeued flit 50008
Requeued flit 50549
Requeued flit 50504
Requeued flit 50726
Requeued flit 50629
Requeued flit 50446
Requeued flit 50783
Requeued flit 50120
Requeued flit 50693
Requeued flit 50848
Requeued flit 50432
Requeued flit 50868
Requeued flit 50625
Requeued flit 50431
Requeued flit 50470
Requeued flit 50254
Requeued flit 50932
Requeued flit 50887
Requeued flit 50246
Requeued flit 50819
Requeued flit 50967
Requeued flit 51057
Requeued flit 51100
Requeued flit 51107
Requeued flit 51028
Requeued flit 50912
Requeued flit 51133
Requeued flit 50893
Requeued flit 51143
Requeued flit 50902
Requeued flit 50878
Requeued flit 51122
Requeued flit 50959
Requeued flit 51264
Requeued flit 51293
Requeued flit 51158
Requeued flit 51231
Requeued flit 51336
Requeued flit 51339
Requeued flit 50797
Requeued flit 51220
Requeued flit 50912
Requeued flit 51408
Requeued flit 50856
Requeued flit 51287
Requeued flit 51316
Requeued flit 51467
Requeued flit 51496
Requeued flit 51076
Requeued flit 51213
Requeued flit 51525
Requeued flit 51577
Requeued flit 51580
Requeued flit 51127
Requeued flit 51357
Requeued flit 51638
Requeued flit 51629
Requeued flit 51597
Requeued flit 51669
Requeued flit 51670
Requeued flit 51108
Requeued flit 51595
Requeued flit 51721
Requeued flit 51658
Requeued flit 51332
Requeued flit 51695
Requeued flit 51518
Requeued flit 50842
Requeued flit 51724
Requeued flit 51617
Requeued flit 51461
Requeued flit 51805
Requeued flit 51641
Requeued flit 51882
Requeued flit 51754
Requeued flit 51682
Requeued flit 51597
Requeued flit 51933
Requeued flit 51832
Requeued flit 51932
Requeued flit 52020
Requeued flit 52100
Requeued flit 51870
Requeued flit 51861
Requeued flit 52123
Requeued flit 52045
Requeued flit 51984
Requeued flit 51755
Requeued flit 52185
Requeued flit 52002
Requeued flit 52239
Requeued flit 51931
Requeued flit 51880
Requeued flit 51573
Requeued flit 52018
Requeued flit 51894
Requeued flit 52141
Requeued flit 52301
Requeued flit 52123
Requeued flit 52243
Requeued flit 52321
Requeued flit 51975
Requeued flit 52433
Requeued flit 52426
Requeued flit 52179
Requeued flit 52024
Requeued flit 52247
Requeued flit 52330
Requeued flit 52395
Requeued flit 52554
Requeued flit 52535
Requeued flit 52221
Requeued flit 52153
Requeued flit 52448
Requeued flit 52572
Requeued flit 52624
Requeued flit 52664
Requeued flit 52443
Requeued flit 52455
Requeued flit 52331
Requeued flit 52610
Requeued flit 52133
Requeued flit 52171
Requeued flit 52575
Requeued flit 52680
Requeued flit 52254
Requeued flit 52483
Requeued flit 52443
Requeued flit 52819
Requeued flit 52758
Requeued flit 52153
Requeued flit 52399
Requeued flit 52347
Requeued flit 52578
Requeued flit 52640
Requeued flit 52521
Requeued flit 52678
Requeued flit 52930
Requeued flit 52823
Requeued flit 52843
Requeued flit 52368
Requeued flit 52770
Requeued flit 52853
Requeued flit 52943
Requeued flit 52971
Requeued flit 52954
Requeued flit 52758
Requeued flit 53010
Requeued flit 52982
Requeued flit 52861
Requeued flit 52831
Requeued flit 53006
Requeued flit 53016
Requeued flit 53047
Requeued flit 52968
Requeued flit 53028
Requeued flit 53140
Requeued flit 53067
Requeued flit 53179
Requeued flit 52853
Requeued flit 53119
Requeued flit 53004
Requeued flit 53163
Requeued flit 53304
Requeued flit 53355
Requeued flit 53242
Requeued flit 52985
Requeued flit 53292
Requeued flit 53168
Requeued flit 52839
Requeued flit 53327
Requeued flit 53459
Requeued flit 53046
Requeued flit 53243
Requeued flit 53026
Requeued flit 53622
Requeued flit 53389
Requeued flit 53546
Requeued flit 53582
Requeued flit 53698
Requeued flit 53572
Requeued flit 53253
Requeued flit 53332
Requeued flit 53147
Requeued flit 53667
Requeued flit 53456
Requeued flit 53736
Requeued flit 53720
Requeued flit 53562
Requeued flit 53827
Requeued flit 53884
Requeued flit 53742
Requeued flit 53691
Requeued flit 53580
Requeued flit 53484
Requeued flit 53410
Requeued flit 53960
Requeued flit 53540
Requeued flit 54056
Requeued flit 53979
Requeued flit 53711
Requeued flit 53913
Requeued flit 53660
Requeued flit 53792
Requeued flit 53985
Requeued flit 53770
Requeued flit 54064
Requeued flit 54152
Requeued flit 54116
Requeued flit 54202
Requeued flit 53676
Requeued flit 54095
Requeued flit 54230
Requeued flit 54212
Requeued flit 54268
Requeued flit 54285
Requeued flit 54187
Requeued flit 54367
Requeued flit 54353
Requeued flit 53942
Requeued flit 53861
Requeued flit 54247
Requeued flit 53438
Requeued flit 53658
Requeued flit 54332
Requeued flit 54255
Requeued flit 54278
Requeued flit 54095
Requeued flit 54479
Requeued flit 54501
Requeued flit 54498
Requeued flit 54303
Requeued flit 54455
Requeued flit 54264
Requeued flit 54415
Requeued flit 54444
Requeued flit 54628
Requeued flit 54674
Requeued flit 54357
Requeued flit 54285
Requeued flit 54568
Requeued flit 54574
Requeued flit 54705
Requeued flit 54582
Requeued flit 54264
Requeued flit 54771
Requeued flit 54778
Requeued flit 54894
Requeued flit 54908
Requeued flit 54984
Requeued flit 54753
Requeued flit 54645
Requeued flit 54451
Requeued flit 54691
Requeued flit 54978
Requeued flit 55020
Requeued flit 54745
Requeued flit 55028
Requeued flit 54809
Requeued flit 54939
Requeued flit 55080
Requeued flit 55093
Requeued flit 55086
Requeued flit 54264
Requeued flit 54982
Requeued flit 54994
Requeued flit 55071
Requeued flit 55095
Requeued flit 54574
Requeued flit 55151
Requeued flit 55178
Requeued flit 54930
Requeued flit 54854
Requeued flit 54939
Requeued flit 55289
Requeued flit 54961
Requeued flit 55138
Requeued flit 55109
Requeued flit 55403
Requeued flit 55388
Requeued flit 54906
Requeued flit 55016
Requeued flit 55392
Requeued flit 55396
Requeued flit 55483
Requeued flit 55487
Requeued flit 55288
Requeued flit 55290
Requeued flit 55540
Requeued flit 55368
Requeued flit 55106
Requeued flit 55610
Requeued flit 55668
Requeued flit 55591
Requeued flit 55704
Requeued flit 55600
Requeued flit 55721
Requeued flit 55612
Requeued flit 55707
Requeued flit 55310
Requeued flit 55722
Requeued flit 55370
Requeued flit 55861
Requeued flit 55558
Requeued flit 55830
Requeued flit 55848
Requeued flit 55882
Requeued flit 55583
Requeued flit 55973
Requeued flit 55530
Requeued flit 55733
Requeued flit 55873
Requeued flit 56108
Requeued flit 55579
Requeued flit 55394
Requeued flit 55785
Requeued flit 55721
Requeued flit 56149
Requeued flit 56184
Requeued flit 56237
Requeued flit 56222
Requeued flit 55518
Requeued flit 56281
Requeued flit 55955
Requeued flit 55643
Requeued flit 56233
Requeued flit 55731
Requeued flit 56383
Requeued flit 56148
Requeued flit 56033
Requeued flit 56545
Requeued flit 55906
Requeued flit 56184
Requeued flit 55873
Requeued flit 56587
Requeued flit 56592
Requeued flit 56617
Requeued flit 56585
Requeued flit 56378
Requeued flit 56231
Requeued flit 56597
Requeued flit 56433
Requeued flit 56581
Requeued flit 56580
Requeued flit 56567
Requeued flit 56784
Requeued flit 56789
Requeued flit 56586
Requeued flit 56628
Requeued flit 56325
Requeued flit 56709
Requeued flit 56825
Requeued flit 56719
Requeued flit 56913
Requeued flit 56768
Requeued flit 56917
Requeued flit 56582
Requeued flit 56812
Requeued flit 56822
Requeued flit 56650
Requeued flit 56839
Requeued flit 56878
Requeued flit 56883
Requeued flit 57045
Requeued flit 56928
Requeued flit 57014
Requeued flit 56754
Requeued flit 56770
Requeued flit 57065
Requeued flit 56642
Requeued flit 56849
Requeued flit 56808
Requeued flit 56954
Requeued flit 57128
Requeued flit 57043
Requeued flit 56827
Requeued flit 56802
Requeued flit 56604
Requeued flit 56999
Requeued flit 57113
Requeued flit 57170
Requeued flit 56719
Requeued flit 56909
Requeued flit 57073
Requeued flit 57287
Requeued flit 57246
Requeued flit 57334
Requeued flit 57289
Requeued flit 57453
Requeued flit 57114
Requeued flit 57176
Requeued flit 57195
Requeued flit 57470
Requeued flit 57418
Requeued flit 57177
Requeued flit 57552
Requeued flit 57545
Requeued flit 57619
Requeued flit 57198
Requeued flit 57646
Requeued flit 57694
Requeued flit 57718
Requeued flit 57278
Requeued flit 57171
Requeued flit 57671
Requeued flit 57726
Requeued flit 57654
Requeued flit 57550
Requeued flit 57537
Requeued flit 57832
Requeued flit 57809
Requeued flit 57835
Requeued flit 57642
Requeued flit 57629
Requeued flit 57836
Requeued flit 57668
Requeued flit 57586
Requeued flit 57876
Requeued flit 57957
Requeued flit 57667
Requeued flit 57711
Requeued flit 57573
Requeued flit 57955
Requeued flit 57946
Requeued flit 57885
Requeued flit 57710
Requeued flit 58014
Requeued flit 57940
Requeued flit 57941
Requeued flit 57518
Requeued flit 57856
Requeued flit 57891
Requeued flit 57917
Requeued flit 58024
Requeued flit 57907
Requeued flit 57996
Requeued flit 57777
Requeued flit 58119
Requeued flit 58102
Requeued flit 58053
Requeued flit 58090
Requeued flit 58216
Requeued flit 58079
Requeued flit 58253
Requeued flit 58202
Requeued flit 58262
Requeued flit 58336
Requeued flit 58314
Requeued flit 57573
Requeued flit 58285
Requeued flit 58382
Requeued flit 58358
Requeued flit 58132
Requeued flit 58076
Requeued flit 58227
Requeued flit 58260
Requeued flit 58120
Requeued flit 57832
Requeued flit 58556
Requeued flit 58450
Requeued flit 58504
Requeued flit 58435
Requeued flit 57843
Requeued flit 58481
Requeued flit 57741
Requeued flit 58267
Requeued flit 58559
Requeued flit 58396
Requeued flit 58291
Requeued flit 58586
Requeued flit 58773
Requeued flit 58243
Requeued flit 58637
Requeued flit 58491
Requeued flit 58418
Requeued flit 58457
Requeued flit 58554
Requeued flit 58486
Requeued flit 58772
Requeued flit 58793
Requeued flit 58935
Requeued flit 58761
Requeued flit 58986
Requeued flit 58829
Requeued flit 59005
Requeued flit 58774
Requeued flit 59033
Requeued flit 58937
Requeued flit 58873
Requeued flit 58695
Requeued flit 59057
Requeued flit 59005
Requeued flit 58688
Requeued flit 59060
Requeued flit 59204
Requeued flit 59085
Requeued flit 58695
Requeued flit 59034
Requeued flit 58963
Requeued flit 58418
Requeued flit 58784
Requeued flit 59351
Requeued flit 59315
Requeued flit 59101
Requeued flit 59321
Requeued flit 59355
Requeued flit 59434
Requeued flit 59251
Requeued flit 59439
Requeued flit 59446
Requeued flit 58937
Requeued flit 59166
Requeued flit 59052
Requeued flit 59484
Requeued flit 59495
Requeued flit 59453
Requeued flit 59163
Requeued flit 59383
Requeued flit 58987
Requeued flit 59204
Requeued flit 59261
Requeued flit 59038
Requeued flit 59498
Requeued flit 59530
Requeued flit 59602
Requeued flit 59488
Requeued flit 59459
Requeued flit 59464
Requeued flit 59252
Requeued flit 59667
Requeued flit 59673
Requeued flit 59677
Requeued flit 59289
Requeued flit 59208
Requeued flit 59497
Requeued flit 59500
Requeued flit 59226
Requeued flit 59649
Requeued flit 59725
Requeued flit 59631
Requeued flit 59359
Requeued flit 59792
Requeued flit 59312
Requeued flit 59549
Requeued flit 59789
Requeued flit 59501
Requeued flit 59618
Requeued flit 59785
Requeued flit 59459
Requeued flit 59843
Requeued flit 59547
Requeued flit 59542
Requeued flit 59837
Requeued flit 59582
Requeued flit 59902
Requeued flit 59984
Requeued flit 59911
Requeued flit 59449
Requeued flit 59881
Requeued flit 59788
Requeued flit 60076
Requeued flit 60112
Requeued flit 59734
Requeued flit 60075
Requeued flit 60022
Requeued flit 60002
Requeued flit 59935
Requeued flit 59873
Requeued flit 59811
Requeued flit 60001
Requeued flit 59710
Requeued flit 60064
Requeued flit 59925
Requeued flit 60190
Requeued flit 60168
Requeued flit 60339
Requeued flit 60252
Requeued flit 59653
Requeued flit 60005
Requeued flit 59848
Requeued flit 59901
Requeued flit 60406
Requeued flit 59924
Requeued flit 60397
Requeued flit 60267
Requeued flit 60349
Requeued flit 60354
Requeued flit 59947
Requeued flit 60491
Requeued flit 60430
Requeued flit 60450
Requeued flit 60360
Requeued flit 60278
Requeued flit 59925
Requeued flit 60351
Requeued flit 59542
Requeued flit 60404
Requeued flit 60405
Requeued flit 60076
Requeued flit 60084
Requeued flit 60572
Requeued flit 60560
Requeued flit 59902
Requeued flit 60668
Requeued flit 60655
Requeued flit 60679
Requeued flit 60399
Requeued flit 60415
Requeued flit 60701
Requeued flit 60642
Requeued flit 60516
Requeued flit 60811
Requeued flit 60675
Requeued flit 60724
Requeued flit 60594
Requeued flit 60845
Requeued flit 60687
Requeued flit 60816
Requeued flit 60611
Requeued flit 60682
Requeued flit 60854
Requeued flit 60856
Requeued flit 60266
Requeued flit 60712
Requeued flit 60577
Requeued flit 60498
Requeued flit 60681
Requeued flit 60925
Requeued flit 60930
Requeued flit 60994
Requeued flit 60349
Requeued flit 60911
Requeued flit 60835
Requeued flit 61121
Requeued flit 61000
Requeued flit 61005
Requeued flit 61138
Requeued flit 60992
Requeued flit 61034
Requeued flit 60688
Requeued flit 60965
Requeued flit 60851
Requeued flit 60624
Requeued flit 61077
Requeued flit 60951
Requeued flit 61161
Requeued flit 60839
Requeued flit 61301
Requeued flit 61285
Requeued flit 61374
Requeued flit 61293
Requeued flit 61057
Requeued flit 61211
Requeued flit 61439
Requeued flit 61238
Requeued flit 60863
Requeued flit 61323
Requeued flit 61228
Requeued flit 61500
Requeued flit 61293
Requeued flit 61552
Requeued flit 60968
Requeued flit 61650
Requeued flit 61014
Requeued flit 61183
Requeued flit 61698
Requeued flit 61138
Requeued flit 61567
Requeued flit 61726
Requeued flit 61702
Requeued flit 61579
Requeued flit 61241
Requeued flit 61378
Requeued flit 61606
Requeued flit 61855
Requeued flit 61700
Requeued flit 61716
Requeued flit 61634
Requeued flit 61765
Requeued flit 61870
Requeued flit 61941
Requeued flit 61341
Requeued flit 61985
Requeued flit 61932
Requeued flit 61627
Requeued flit 62048
Requeued flit 61526
Requeued flit 61818
Requeued flit 62095
Requeued flit 62149
Requeued flit 61526
Requeued flit 61980
Requeued flit 62255
Requeued flit 62118
Requeued flit 62204
Requeued flit 61791
Requeued flit 62301
Requeued flit 62287
Requeued flit 62183
Requeued flit 62188
Requeued flit 62373
Requeued flit 61912
Requeued flit 61837
Requeued flit 62272
Requeued flit 62148
Requeued flit 62149
Requeued flit 61998
Requeued flit 62315
Requeued flit 62219
Requeued flit 62385
Requeued flit 62446
Requeued flit 62564
Requeued flit 62454
Requeued flit 62289
Requeued flit 62008
Requeued flit 62588
Requeued flit 62615
Requeued flit 62433
Requeued flit 62448
Requeued flit 62648
Requeued flit 62690
Requeued flit 62699
Requeued flit 62204
Requeued flit 62063
Requeued flit 62528
Requeued flit 62055
Requeued flit 62546
Requeued flit 62752
Requeued flit 62596
Requeued flit 62744
Requeued flit 62197
Requeued flit 62495
Requeued flit 62666
Requeued flit 62219
Requeued flit 62714
Requeued flit 62368
Requeued flit 62476
Requeued flit 62877
Requeued flit 62910
Requeued flit 62172
Requeued flit 62619
Requeued flit 62741
[...]
Requeued flit 1330884
Requeued flit 1331111
Requeued flit 1331564
Requeued flit 1331568
Requeued flit 1331118
Requeued flit 1331611
Requeued flit 1331545
Requeued flit 1331427
Requeued flit 1331478
Requeued flit 1331668
Requeued flit 1331405
Requeued flit 1331315
Requeued flit 1331239
Requeued flit 1331360
Requeued flit 1331438
Requeued flit 1330948
Requeued flit 1331794
Requeued flit 1331673
Requeued flit 1331809
Requeued flit 1331705
Requeued flit 1331797
Requeued flit 1331750
Requeued flit 1331955
Requeued flit 1331694
Requeued flit 1331906
Requeued flit 1331896
Requeued flit 1331553
Requeued flit 1331933
Requeued flit 1331968
Requeued flit 1332070
Requeued flit 1331817
Requeued flit 1332106
Requeued flit 1331875
Requeued flit 1331969
Requeued flit 1332072
Requeued flit 1332027
Requeued flit 1331964
Requeued flit 1332121
Requeued flit 1332174
Requeued flit 1332255
Requeued flit 1332289
Requeued flit 1331933
Requeued flit 1332206
Requeued flit 1332385
Requeued flit 1331983
Requeued flit 1332346
Requeued flit 1332392
Requeued flit 1332211
Requeued flit 1332275
Requeued flit 1332513
Requeued flit 1332522
Requeued flit 1332053
Requeued flit 1332148
Requeued flit 1332575
Requeued flit 1332526
Requeued flit 1332220
Requeued flit 1332474
Requeued flit 1332423
Requeued flit 1332145
Requeued flit 1332701
Requeued flit 1332282
Requeued flit 1332710
Requeued flit 1332678
Requeued flit 1332660
Requeued flit 1332191
Requeued flit 1332769
Requeued flit 1332808
Requeued flit 1332266
Requeued flit 1332783
Requeued flit 1332818
Requeued flit 1332606
Requeued flit 1332337
Requeued flit 1332765
Requeued flit 1332204
Requeued flit 1332856
Requeued flit 1332845
Requeued flit 1332533
Requeued flit 1332636
Requeued flit 1332997
Requeued flit 1332948
Requeued flit 1332784
Requeued flit 1332978
Requeued flit 1333023
Requeued flit 1332955
Requeued flit 1333084
Requeued flit 1333153
Requeued flit 1332876
Requeued flit 1332526
Requeued flit 1333078
Requeued flit 1332773
Requeued flit 1332994
Requeued flit 1333055
Requeued flit 1333240
Requeued flit 1332984
Requeued flit 1333198
Requeued flit 1333219
Requeued flit 1332865
Requeued flit 1332839
Requeued flit 1333343
Requeued flit 1333268
Requeued flit 1333190
Requeued flit 1333204
Requeued flit 1333377
Requeued flit 1333295
Requeued flit 1333115
Requeued flit 1332746
Requeued flit 1333214
Requeued flit 1333466
Requeued flit 1333457
Requeued flit 1333467
Requeued flit 1332870
Requeued flit 1333441
Requeued flit 1333465
Requeued flit 1332981
Requeued flit 1333482
Requeued flit 1333448
Requeued flit 1333388
Requeued flit 1333530
Requeued flit 1333103
Requeued flit 1333601
Requeued flit 1333090
Requeued flit 1333577
Requeued flit 1333654
Requeued flit 1333405
Requeued flit 1333590
Requeued flit 1333587
Requeued flit 1333639
Requeued flit 1333392
Requeued flit 1333545
Requeued flit 1333729
Requeued flit 1333300
Requeued flit 1333479
Requeued flit 1333830
Requeued flit 1333492
Requeued flit 1333404
Requeued flit 1333706
Requeued flit 1333621
Requeued flit 1333610
Requeued flit 1333766
Requeued flit 1333871
Requeued flit 1333626
Requeued flit 1333876
Requeued flit 1333707
Requeued flit 1333862
Requeued flit 1334031
Requeued flit 1333930
Requeued flit 1334078
Requeued flit 1333467
Requeued flit 1334026
Requeued flit 1333976
Requeued flit 1334109
Requeued flit 1334028
Requeued flit 1333768
Requeued flit 1334152
Requeued flit 1334090
Requeued flit 1333855
Requeued flit 1334183
Requeued flit 1333954
Requeued flit 1334177
Requeued flit 1334251
Requeued flit 1333931
Requeued flit 1333976
Requeued flit 1334303
Requeued flit 1333739
Requeued flit 1334170
Requeued flit 1333996
Requeued flit 1334405
Requeued flit 1333921
Requeued flit 1334176
Requeued flit 1334376
Requeued flit 1334432
Requeued flit 1334444
Requeued flit 1334423
Requeued flit 1334522
Requeued flit 1334424
Requeued flit 1334356
Requeued flit 1334330
Requeued flit 1334256
Requeued flit 1334414
Requeued flit 1334436
Requeued flit 1334546
Requeued flit 1334673
Requeued flit 1334636
Requeued flit 1334519
Requeued flit 1334615
Requeued flit 1334580
Requeued flit 1334320
Requeued flit 1334628
Requeued flit 1334381
Requeued flit 1334694
Requeued flit 1334907
Requeued flit 1334779
Requeued flit 1335006
Requeued flit 1334798
Requeued flit 1334643
Requeued flit 1335072
Requeued flit 1334905
Requeued flit 1334863
Requeued flit 1334945
Requeued flit 1334719
Requeued flit 1335151
Requeued flit 1334427
Requeued flit 1335182
Requeued flit 1334974
Requeued flit 1335122
Requeued flit 1335145
Requeued flit 1334842
Requeued flit 1335110
Requeued flit 1334786
Requeued flit 1335254
Requeued flit 1335132
Requeued flit 1335252
Requeued flit 1335313
Requeued flit 1335303
Requeued flit 1334830
Requeued flit 1335354
Requeued flit 1335320
Requeued flit 1335171
Requeued flit 1335402
Requeued flit 1335431
Requeued flit 1335159
Requeued flit 1335351
Requeued flit 1335132
Requeued flit 1335399
Requeued flit 1335205
Requeued flit 1335446
Requeued flit 1335441
Requeued flit 1335373
Requeued flit 1334961
Requeued flit 1334819
Requeued flit 1335347
Requeued flit 1335528
Requeued flit 1335406
Requeued flit 1335544
Requeued flit 1335196
Requeued flit 1335500
Requeued flit 1335660
Requeued flit 1335383
Requeued flit 1335441
Requeued flit 1335673
Requeued flit 1335609
Requeued flit 1335682
Requeued flit 1335413
Requeued flit 1335132
Requeued flit 1335480
Requeued flit 1335571
Requeued flit 1335707
Requeued flit 1335704
Requeued flit 1335766
Requeued flit 1335793
Requeued flit 1335715
Requeued flit 1335655
Requeued flit 1335402
Requeued flit 1335661
Requeued flit 1335333
Requeued flit 1335771
Requeued flit 1335863
Requeued flit 1335893
Requeued flit 1335501
Requeued flit 1335935
Requeued flit 1335871
Requeued flit 1335289
Requeued flit 1335866
Requeued flit 1335343
Requeued flit 1335900
Requeued flit 1335636
Requeued flit 1336006
Requeued flit 1336019
Requeued flit 1335698
Requeued flit 1335619
Requeued flit 1336059
Requeued flit 1335906
Requeued flit 1335962
Requeued flit 1335369
Requeued flit 1335671
Requeued flit 1336015
Requeued flit 1336054
Requeued flit 1335978
Requeued flit 1336118
Requeued flit 1335635
Requeued flit 1336053
Requeued flit 1336196
Requeued flit 1336266
Requeued flit 1335803
Requeued flit 1336263
Requeued flit 1336130
Requeued flit 1336239
Requeued flit 1336199
Requeued flit 1336019
Requeued flit 1336106
Requeued flit 1336040
Requeued flit 1335818
Requeued flit 1336013
Requeued flit 1336364
Requeued flit 1336308
Requeued flit 1336354
Requeued flit 1336265
Requeued flit 1336401
Requeued flit 1336184
Requeued flit 1336427
Requeued flit 1336540
Requeued flit 1336466
Requeued flit 1336562
Requeued flit 1336311
Requeued flit 1335972
Requeued flit 1336312
Requeued flit 1336486
Requeued flit 1336625
Requeued flit 1336550
Requeued flit 1336488
Requeued flit 1336608
Requeued flit 1336254
Requeued flit 1336278
Requeued flit 1336640
Requeued flit 1336569
Requeued flit 1336546
Requeued flit 1336799
Requeued flit 1336590
Requeued flit 1336812
Requeued flit 1336789
Requeued flit 1336644
Requeued flit 1336712
Requeued flit 1336737
Requeued flit 1336881
Requeued flit 1336775
Requeued flit 1336890
Requeued flit 1336888
Requeued flit 1336756
Requeued flit 1336931
Requeued flit 1336791
Requeued flit 1337027
Requeued flit 1337010
Requeued flit 1336752
Requeued flit 1336724
Requeued flit 1336897
Requeued flit 1337026
Requeued flit 1336640
Requeued flit 1336732
Requeued flit 1337063
Requeued flit 1337100
Requeued flit 1336878
Requeued flit 1336592
Requeued flit 1336925
Requeued flit 1337033
Requeued flit 1337081
Requeued flit 1337082
Requeued flit 1336412
Requeued flit 1336704
Requeued flit 1337115
Requeued flit 1337023
Requeued flit 1337039
Requeued flit 1337212
Requeued flit 1336977
Requeued flit 1336702
Requeued flit 1336984
Requeued flit 1336986
Requeued flit 1336704
Requeued flit 1337030
Requeued flit 1337302
Requeued flit 1337200
Requeued flit 1337272
Requeued flit 1336832
Requeued flit 1336901
Requeued flit 1337163
Requeued flit 1337095
Requeued flit 1337139
Requeued flit 1337355
Requeued flit 1337253
Requeued flit 1337244
Requeued flit 1337440
Requeued flit 1336795
Requeued flit 1337458
Requeued flit 1337029
Requeued flit 1337457
Requeued flit 1337516
Requeued flit 1337543
Requeued flit 1337645
Requeued flit 1336997
Requeued flit 1337389
Requeued flit 1337504
Requeued flit 1337673
Requeued flit 1337579
Requeued flit 1337742
Requeued flit 1337095
Requeued flit 1337244
Requeued flit 1337857
Requeued flit 1337341
Requeued flit 1337749
Requeued flit 1337684
Requeued flit 1337751
Requeued flit 1337165
Requeued flit 1337937
Requeued flit 1337860
Requeued flit 1337200
Requeued flit 1337445
Requeued flit 1337996
Requeued flit 1337921
Requeued flit 1337811
Requeued flit 1337706
Requeued flit 1337988
Requeued flit 1337945
Requeued flit 1338204
Requeued flit 1337569
Requeued flit 1337946
Requeued flit 1337859
Requeued flit 1338205
Requeued flit 1338049
Requeued flit 1338309
Requeued flit 1337875
Requeued flit 1338322
Requeued flit 1338360
Requeued flit 1338214
Requeued flit 1338367
Requeued flit 1338374
Requeued flit 1338223
Requeued flit 1338338
Requeued flit 1338418
Requeued flit 1338049
Requeued flit 1338137
Requeued flit 1338268
Requeued flit 1338404
Requeued flit 1338340
Requeued flit 1338524
Requeued flit 1338452
Requeued flit 1338242
Requeued flit 1338532
Requeued flit 1338541
Requeued flit 1338490
Requeued flit 1338258
Requeued flit 1338598
Requeued flit 1338478
Requeued flit 1338560
Requeued flit 1338421
Requeued flit 1338324
Requeued flit 1338586
Requeued flit 1338679
Requeued flit 1338686
Requeued flit 1338406
Requeued flit 1338727
Requeued flit 1338841
Requeued flit 1338258
Requeued flit 1338730
Requeued flit 1338201
Requeued flit 1338957
Requeued flit 1338507
Requeued flit 1338692
Requeued flit 1338748
Requeued flit 1338952
Requeued flit 1338810
Requeued flit 1338887
Requeued flit 1339090
Requeued flit 1338882
Requeued flit 1339046
Requeued flit 1338726
Requeued flit 1338964
Requeued flit 1339203
Requeued flit 1339287
Requeued flit 1339128
Requeued flit 1338570
Requeued flit 1339011
Requeued flit 1339005
Requeued flit 1339347
Requeued flit 1339334
Requeued flit 1339194
Requeued flit 1339308
Requeued flit 1338962
Requeued flit 1339389
Requeued flit 1339343
Requeued flit 1338787
Requeued flit 1339390
Requeued flit 1339133
Requeued flit 1339461
Requeued flit 1339287
Requeued flit 1339249
Requeued flit 1339316
Requeued flit 1339280
Requeued flit 1339468
Requeued flit 1339548
Requeued flit 1339042
Requeued flit 1339576
Requeued flit 1339599
Requeued flit 1339619
Requeued flit 1339678
Requeued flit 1339260
Requeued flit 1339356
Requeued flit 1339661
Requeued flit 1339464
Requeued flit 1339767
Requeued flit 1339838
Requeued flit 1339752
Requeued flit 1339829
Requeued flit 1339857
Requeued flit 1339402
Requeued flit 1339454
Requeued flit 1339937
Requeued flit 1339867
Requeued flit 1339822
Requeued flit 1339847
Requeued flit 1340025
Requeued flit 1339984
Requeued flit 1340060
Requeued flit 1339708
Requeued flit 1340108
Requeued flit 1339850
Requeued flit 1339949
Requeued flit 1340098
Requeued flit 1340153
Requeued flit 1339959
Requeued flit 1340174
Requeued flit 1340212
Requeued flit 1340158
Requeued flit 1339902
Requeued flit 1339967
Requeued flit 1340268
Requeued flit 1340196
Requeued flit 1339915
Requeued flit 1339920
Requeued flit 1340279
Requeued flit 1340275
Requeued flit 1340323
Requeued flit 1340046
Requeued flit 1340199
Requeued flit 1340202
Requeued flit 1340270
Requeued flit 1340392
Requeued flit 1340340
Requeued flit 1339755
Requeued flit 1340316
Requeued flit 1340467
Requeued flit 1340482
Requeued flit 1340195
Requeued flit 1340369
Requeued flit 1340480
Requeued flit 1340079
Requeued flit 1340491
Requeued flit 1340591
Requeued flit 1340510
Requeued flit 1340353
Requeued flit 1340345
Requeued flit 1340657
Requeued flit 1340599
Requeued flit 1340694
Requeued flit 1340535
Requeued flit 1340668
Requeued flit 1340743
Requeued flit 1340424
Requeued flit 1340837
Requeued flit 1340734
Requeued flit 1340785
Requeued flit 1340558
Requeued flit 1340533
Requeued flit 1340740
Requeued flit 1340895
Requeued flit 1340729
Requeued flit 1340922
Requeued flit 1340838
Requeued flit 1340655
Requeued flit 1340835
Requeued flit 1340282
Requeued flit 1340717
Requeued flit 1340694
Requeued flit 1340997
Requeued flit 1340888
Requeued flit 1341022
Requeued flit 1340982
Requeued flit 1341048
Requeued flit 1341027
Requeued flit 1341008
Requeued flit 1340839
Requeued flit 1341182
Requeued flit 1341124
Requeued flit 1341149
Requeued flit 1341217
Requeued flit 1341141
Requeued flit 1341258
Requeued flit 1341204
Requeued flit 1340948
Requeued flit 1341212
Requeued flit 1341176
Requeued flit 1341297
Requeued flit 1340714
Requeued flit 1341174
Requeued flit 1341014
Requeued flit 1341213
Requeued flit 1341281
Requeued flit 1341038
Requeued flit 1341242
Requeued flit 1340509
Requeued flit 1340981
Requeued flit 1341090
Requeued flit 1341149
Requeued flit 1341413
Requeued flit 1341286
Requeued flit 1341303
Requeued flit 1341421
Requeued flit 1341142
Requeued flit 1341506
Requeued flit 1341416
Requeued flit 1341578
Requeued flit 1341339
Requeued flit 1341217
Requeued flit 1341557
Requeued flit 1341683
Requeued flit 1341662
Requeued flit 1341459
Requeued flit 1341486
Requeued flit 1341380
Requeued flit 1341139
Requeued flit 1341740
Requeued flit 1341682
Requeued flit 1341373
Requeued flit 1341010
Requeued flit 1341563
Requeued flit 1341761
Requeued flit 1341633
Requeued flit 1341557
Requeued flit 1341804
Requeued flit 1341689
Requeued flit 1341255
Requeued flit 1341442
Requeued flit 1341580
Requeued flit 1341778
Requeued flit 1341814
Requeued flit 1341273
Requeued flit 1341573
Requeued flit 1341865
Requeued flit 1341682
Requeued flit 1341972
Requeued flit 1341529
Requeued flit 1341848
Requeued flit 1341966
Requeued flit 1341524
Requeued flit 1341980
Requeued flit 1341885
Requeued flit 1342056
Requeued flit 1342010
Requeued flit 1342055
Requeued flit 1341577
Requeued flit 1341658
Requeued flit 1341677
Requeued flit 1341969
Requeued flit 1341901
Requeued flit 1341470
Requeued flit 1342001
Requeued flit 1341740
Requeued flit 1342038
Requeued flit 1342146
Requeued flit 1342107
Requeued flit 1341976
Requeued flit 1342276
Requeued flit 1342129
Requeued flit 1342181
Requeued flit 1342330
Requeued flit 1342320
Requeued flit 1342353
Requeued flit 1342277
Requeued flit 1342399
Requeued flit 1342372
Requeued flit 1342448
Requeued flit 1342180
Requeued flit 1342162
Requeued flit 1342248
Requeued flit 1341662
Requeued flit 1342504
Requeued flit 1341959
Requeued flit 1342128
Requeued flit 1341799
Requeued flit 1341744
Requeued flit 1342142
Requeued flit 1342122
Requeued flit 1342165
Requeued flit 1342450
Class 0:
Packet latency average = 23.4606
	minimum = 5
	maximum = 79
Network latency average = 23.4606
	minimum = 5
	maximum = 79
Slowest packet = 1048514
Flit latency average = 23.4634
	minimum = 5
	maximum = 79
Slowest flit = 1048514
Fragmentation average = 0
	minimum = 0
	maximum = 0
Injected packet rate average = 0.350146
	minimum = 0.3429 (at node 0)
	maximum = 0.356667 (at node 23)
Accepted packet rate average = 0.350161
	minimum = 0.342267 (at node 14)
	maximum = 0.3578 (at node 31)
Injected flit rate average = 0.350146
	minimum = 0.3429 (at node 0)
	maximum = 0.356667 (at node 23)
Accepted flit rate average= 0.350161
	minimum = 0.342267 (at node 14)
	maximum = 0.3578 (at node 31)
Injected packet length average = 1
Accepted packet length average = 1
Total in-flight flits = 489 (489 measured)
latency change    = 0.00187635
throughput change = 0.00135949
Draining all recorded packets ...
in flight = 489
Requeued flit 1342568
in flight = 464
Requeued flit 1342609
Requeued flit 1342358
in flight = 449
Requeued flit 1342095
in flight = 432
Requeued flit 1342685
in flight = 411
Requeued flit 1342329
in flight = 393
Requeued flit 1342684
Requeued flit 1342546
in flight = 376
Requeued flit 1342107
in flight = 354
Requeued flit 1342714
Requeued flit 1342264
in flight = 334
Requeued flit 1342194
in flight = 313
in flight = 291
Requeued flit 1342880
Requeued flit 1342802
Requeued flit 1342746
Requeued flit 1342601
in flight = 270
Requeued flit 1342747
in flight = 249
Requeued flit 1342882
Requeued flit 1342800
in flight = 228
Requeued flit 1342808
in flight = 205
Requeued flit 1342180
Requeued flit 1342901
in flight = 191
Requeued flit 1342812
Requeued flit 1342900
in flight = 176
Requeued flit 1342818
Requeued flit 1342862
in flight = 163
Requeued flit 1342928
in flight = 149
Requeued flit 1342678
Requeued flit 1343044
in flight = 134
Requeued flit 1342418
in flight = 116
in flight = 100
Requeued flit 1342621
in flight = 89
Requeued flit 1342898
in flight = 81
in flight = 74
Requeued flit 1342942
in flight = 65
Requeued flit 1343205
Requeued flit 1343217
in flight = 55
Requeued flit 1343152
Requeued flit 1343230
in flight = 47
in flight = 43
Requeued flit 1343262
Requeued flit 1343088
Requeued flit 1343256
in flight = 37
in flight = 32
Requeued flit 1342784
Requeued flit 1343212
in flight = 28
in flight = 26
Requeued flit 1343193
Requeued flit 1343235
Requeued flit 1342888
in flight = 23
Requeued flit 1343186
Requeued flit 1342819
in flight = 18
Requeued flit 1342994
in flight = 15
Requeued flit 1343181
in flight = 13
Requeued flit 1343416
Requeued flit 1342885
in flight = 10
Requeued flit 1343231
Requeued flit 1342777
Requeued flit 1343064
in flight = 9
in flight = 6
Requeued flit 1343426
in flight = 6
in flight = 5
Requeued flit 1343241
Requeued flit 1343525
Requeued flit 1343160
Requeued flit 1343533
in flight = 4
Requeued flit 1343312
in flight = 3
Requeued flit 1343023
Requeued flit 1343174
in flight = 3
Requeued flit 1343567
in flight = 3
Requeued flit 1343329
in flight = 3
Requeued flit 1343663
in flight = 2
Requeued flit 1343656
Requeued flit 1343212
Requeued flit 1343675
in flight = 2
Requeued flit 1343700
Requeued flit 1343316
in flight = 2
Requeued flit 1343657
Requeued flit 1343242
in flight = 2
Requeued flit 1343747
in flight = 2
Requeued flit 1343522
in flight = 2
in flight = 2
Requeued flit 1343721
in flight = 2
Requeued flit 1343842
in flight = 2
Requeued flit 1343574
in flight = 1
Draining remaining packets ...
Requeued flit 1343690
Requeued flit 1343647
Requeued flit 1343541
Requeued flit 1343675
Requeued flit 1343806
Requeued flit 1343829
Requeued flit 1343873
Requeued flit 1343876
Requeued flit 1343571
Requeued flit 1343799
Requeued flit 1344052
Requeued flit 1343908
Requeued flit 1343488
Requeued flit 1344110
Requeued flit 1343729
Requeued flit 1343851
Requeued flit 1344094
Requeued flit 1344016
Requeued flit 1344107
Requeued flit 1343773
Requeued flit 1344010
Requeued flit 1343942
Requeued flit 1344050
Requeued flit 1343958
Requeued flit 1344013
Requeued flit 1344000
Requeued flit 1343851
Requeued flit 1343764
Requeued flit 1343905
Time taken is 60108 cycles
====== Overall Traffic Statistics ======
====== Traffic class 0 ======
Packet latency average = 23.4638 (1 samples)
	minimum = 5 (1 samples)
	maximum = 79 (1 samples)
Network latency average = 23.4638 (1 samples)
	minimum = 5 (1 samples)
	maximum = 79 (1 samples)
Flit latency average = 23.4662 (1 samples)
	minimum = 5 (1 samples)
	maximum = 79 (1 samples)
Fragmentation average = 0 (1 samples)
	minimum = 0 (1 samples)
	maximum = 0 (1 samples)
Injected packet rate average = 0.350146 (1 samples)
	minimum = 0.3429 (1 samples)
	maximum = 0.356667 (1 samples)
Accepted packet rate average = 0.350161 (1 samples)
	minimum = 0.342267 (1 samples)
	maximum = 0.3578 (1 samples)
Injected flit rate average = 0.350146 (1 samples)
	minimum = 0.3429 (1 samples)
	maximum = 0.356667 (1 samples)
Accepted flit rate average = 0.350161 (1 samples)
	minimum = 0.342267 (1 samples)
	maximum = 0.3578 (1 samples)
Injected packet size average = 1 (1 samples)
Accepted packet size average = 1 (1 samples)
Hops average = 6.24967 (1 samples)
Total run time 169.197
