BEGIN Configuration File: examples/ecc_mesh88_config_0_0.800_packet_2
// $Id$

// Copyright (c) 2007-2015, Trustees of The Leland Stanford Junior University
// All rights reserved.
//
// Redistribution and use in source and binary forms, with or without
// modification, are permitted provided that the following conditions are met:
//
// Redistributions of source code must retain the above copyright notice, this
// list of conditions and the following disclaimer.
// Redistributions in binary form must reproduce the above copyright notice,
// this list of conditions and the following disclaimer in the documentation
// and/or other materials provided with the distribution.
//
// THIS SOFTWARE IS PROVIDED BY THE COPYRIGHT HOLDERS AND CONTRIBUTORS "AS IS"
// AND ANY EXPRESS OR IMPLIED WARRANTIES, INCLUDING, BUT NOT LIMITED TO, THE
// IMPLIED WARRANTIES OF MERCHANTABILITY AND FITNESS FOR A PARTICULAR PURPOSE
// ARE DISCLAIMED. IN NO EVENT SHALL THE COPYRIGHT OWNER OR CONTRIBUTORS BE
// LIABLE FOR ANY DIRECT, INDIRECT, INCIDENTAL, SPECIAL, EXEMPLARY, OR
// CONSEQUENTIAL DAMAGES (INCLUDING, BUT NOT LIMITED TO, PROCUREMENT OF
// SUBSTITUTE GOODS OR SERVICES; LOSS OF USE, DATA, OR PROFITS; OR BUSINESS
// INTERRUPTION) HOWEVER CAUSED AND ON ANY THEORY OF LIABILITY, WHETHER IN
// CONTRACT, STRICT LIABILITY, OR TORT (INCLUDING NEGLIGENCE OR OTHERWISE)
// ARISING IN ANY WAY OUT OF THE USE OF THIS SOFTWARE, EVEN IF ADVISED OF THE
// POSSIBILITY OF SUCH DAMAGE.

// Dragonfly
//




vc_buf_size = 256;


wait_for_tail_credit = 0;

//
// Router architecture
//
vc_allocator = separable_input_first; 
sw_allocator = separable_input_first;
alloc_iters  = 1;

credit_delay   = 2;
routing_delay  = 0;
vc_alloc_delay = 1;
sw_alloc_delay = 1;
st_final_delay = 1;

input_speedup     = 1;
output_speedup    = 1;
internal_speedup  = 2.0;


warmup_periods = 3;
sim_count          = 1;

sample_period  = 10000;  


routing_function = dor;
num_vcs     = 2;

priority = none;
traffic       = uniform; 

injection_rate = 0.8;
packet_size = 1;
injection_rate_uses_flits=1;

topology = mesh;

k  = 8;
n  = 2;

fer = 2;
ecc = link;
correctable = 0;

watch_out=-;
watch_file = watch.txt;

ecc = packet;

stats_out = examples/ecc_mesh88_config_0_0.800_packet_2.m;

END Configuration File: examples/ecc_mesh88_config_0_0.800_packet_2
Additional hops: 2
Adding flit 89 as NACK at time 9
Additional hops: 5
Adding flit 8 as NACK at time 11
Additional hops: 7
Adding flit 214 as NACK at time 12
Reenqueueing errored packet 89 at time 14
Reenqueueing errored packet 214 at time 17
Reenqueueing errored packet 8 at time 18
Additional hops: 9
Adding flit 577 as NACK at time 19
Additional hops: 14
Adding flit 113 as NACK at time 21
Additional hops: 17
Adding flit 422 as NACK at time 21
Additional hops: 22
Adding flit 204 as NACK at time 22
Additional hops: 29
Adding flit 34 as NACK at time 23
Reenqueueing errored packet 577 at time 24
Additional hops: 34
Adding flit 236 as NACK at time 24
Additional hops: 39
Adding flit 154 as NACK at time 25
Additional hops: 46
Adding flit 80 as NACK at time 25
Additional hops: 52
Adding flit 223 as NACK at time 25
Additional hops: 56
Adding flit 601 as NACK at time 26
Additional hops: 63
Adding flit 5 as NACK at time 26
Additional hops: 68
Adding flit 489 as NACK at time 26
Additional hops: 70
Adding flit 975 as NACK at time 26
Additional hops: 76
Adding flit 224 as NACK at time 27
Additional hops: 83
Adding flit 121 as NACK at time 27
Reenqueueing errored packet 422 at time 28
Additional hops: 85
Adding flit 1039 as NACK at time 28
Additional hops: 91
Adding flit 439 as NACK at time 29
Reenqueueing errored packet 975 at time 31
Additional hops: 95
Adding flit 716 as NACK at time 31
Additional hops: 102
Adding flit 306 as NACK at time 31
Additional hops: 106
Adding flit 712 as NACK at time 31
Additional hops: 114
Adding flit 87 as NACK at time 31
Additional hops: 120
Adding flit 342 as NACK at time 31
Reenqueueing errored packet 113 at time 32
Additional hops: 124
Adding flit 741 as NACK at time 32
Additional hops: 130
Adding flit 548 as NACK at time 32
Additional hops: 135
Adding flit 650 as NACK at time 32
Reenqueueing errored packet 1039 at time 33
Reenqueueing errored packet 204 at time 33
Additional hops: 141
Adding flit 386 as NACK at time 33
Additional hops: 148
Adding flit 52 as NACK at time 33
Reenqueueing errored packet 601 at time 35
Reenqueueing errored packet 236 at time 35
Additional hops: 153
Adding flit 908 as NACK at time 35
Reenqueueing errored packet 154 at time 36
Additional hops: 156
Adding flit 1220 as NACK at time 36
Additional hops: 161
Adding flit 642 as NACK at time 36
Additional hops: 168
Adding flit 389 as NACK at time 36
Reenqueueing errored packet 489 at time 37
Additional hops: 178
Adding flit 27 as NACK at time 37
Additional hops: 185
Adding flit 415 as NACK at time 37
Additional hops: 193
Adding flit 132 as NACK at time 37
Additional hops: 199
Adding flit 471 as NACK at time 37
Additional hops: 203
Adding flit 1212 as NACK at time 37
Additional hops: 212
Adding flit 153 as NACK at time 37
Reenqueueing errored packet 223 at time 38
Reenqueueing errored packet 34 at time 38
Additional hops: 217
Adding flit 799 as NACK at time 38
Additional hops: 221
Adding flit 1264 as NACK at time 38
Additional hops: 228
Adding flit 539 as NACK at time 38
Additional hops: 239
Adding flit 40 as NACK at time 39
Additional hops: 246
Adding flit 282 as NACK at time 39
Reenqueueing errored packet 712 at time 40
Reenqueueing errored packet 716 at time 40
Reenqueueing errored packet 224 at time 40
Reenqueueing errored packet 80 at time 40
Additional hops: 254
Adding flit 460 as NACK at time 40
Additional hops: 257
Adding flit 1160 as NACK at time 40
Additional hops: 260
Adding flit 1055 as NACK at time 40
Reenqueueing errored packet 741 at time 41
Reenqueueing errored packet 5 at time 41
Additional hops: 265
Adding flit 787 as NACK at time 41
Additional hops: 272
Adding flit 525 as NACK at time 41
Reenqueueing errored packet 439 at time 42
Reenqueueing errored packet 121 at time 42
Reenqueueing errored packet 1220 at time 43
Reenqueueing errored packet 650 at time 43
Reenqueueing errored packet 342 at time 44
Additional hops: 277
Adding flit 1198 as NACK at time 44
Reenqueueing errored packet 548 at time 45
Additional hops: 284
Adding flit 555 as NACK at time 45
Additional hops: 290
Adding flit 768 as NACK at time 45
Reenqueueing errored packet 1212 at time 46
Reenqueueing errored packet 908 at time 46
Reenqueueing errored packet 386 at time 46
Reenqueueing errored packet 306 at time 46
Additional hops: 293
Adding flit 1452 as NACK at time 46
Additional hops: 298
Adding flit 1002 as NACK at time 46
Additional hops: 307
Adding flit 582 as NACK at time 46
Additional hops: 312
Adding flit 1383 as NACK at time 46
Reenqueueing errored packet 1055 at time 47
Reenqueueing errored packet 1264 at time 47
Reenqueueing errored packet 642 at time 47
Additional hops: 314
Adding flit 1776 as NACK at time 47
Reenqueueing errored packet 52 at time 48
Reenqueueing errored packet 87 at time 48
Additional hops: 322
Adding flit 522 as NACK at time 48
Additional hops: 326
Adding flit 1764 as NACK at time 48
Additional hops: 336
Adding flit 202 as NACK at time 48
Reenqueueing errored packet 799 at time 49
Additional hops: 344
Adding flit 980 as NACK at time 49
Additional hops: 350
Adding flit 1147 as NACK at time 49
Additional hops: 355
Adding flit 871 as NACK at time 49
Additional hops: 359
Adding flit 1528 as NACK at time 49
Reenqueueing errored packet 471 at time 50
Additional hops: 364
Adding flit 1267 as NACK at time 50
Additional hops: 371
Adding flit 1023 as NACK at time 50
Additional hops: 378
Adding flit 442 as NACK at time 50
Reenqueueing errored packet 389 at time 51
Additional hops: 381
Adding flit 1971 as NACK at time 51
Reenqueueing errored packet 1776 at time 52
Reenqueueing errored packet 787 at time 52
Reenqueueing errored packet 415 at time 52
Additional hops: 387
Adding flit 1243 as NACK at time 52
Reenqueueing errored packet 1452 at time 53
Reenqueueing errored packet 539 at time 53
Additional hops: 398
Adding flit 58 as NACK at time 53
Reenqueueing errored packet 282 at time 54
Reenqueueing errored packet 132 at time 54
Additional hops: 406
Adding flit 775 as NACK at time 54
Reenqueueing errored packet 1198 at time 55
Additional hops: 416
Adding flit 359 as NACK at time 55
Reenqueueing errored packet 525 at time 56
Reenqueueing errored packet 153 at time 56
Reenqueueing errored packet 1764 at time 57
Reenqueueing errored packet 1383 at time 57
Reenqueueing errored packet 1002 at time 57
Reenqueueing errored packet 460 at time 57
Additional hops: 421
Adding flit 1584 as NACK at time 57
Reenqueueing errored packet 1971 at time 58
Reenqueueing errored packet 1528 at time 58
Reenqueueing errored packet 768 at time 58
Additional hops: 427
Adding flit 1753 as NACK at time 58
Additional hops: 437
Adding flit 717 as NACK at time 59
Reenqueueing errored packet 871 at time 60
Reenqueueing errored packet 555 at time 60
Additional hops: 444
Adding flit 1016 as NACK at time 60
Reenqueueing errored packet 1267 at time 61
Additional hops: 452
Adding flit 933 as NACK at time 61
Additional hops: 457
Adding flit 1462 as NACK at time 61
Additional hops: 463
Adding flit 1861 as NACK at time 61
Reenqueueing errored packet 1147 at time 62
Reenqueueing errored packet 40 at time 62
Additional hops: 469
Adding flit 1862 as NACK at time 62
Additional hops: 478
Adding flit 559 as NACK at time 62
Additional hops: 488
Adding flit 1193 as NACK at time 62
Additional hops: 499
Adding flit 737 as NACK at time 63
Additional hops: 504
Adding flit 893 as NACK at time 63
Additional hops: 512
Adding flit 1480 as NACK at time 64
Additional hops: 521
Adding flit 1445 as NACK at time 64
Reenqueueing errored packet 1243 at time 65
Reenqueueing errored packet 442 at time 65
Reenqueueing errored packet 1023 at time 65
Reenqueueing errored packet 522 at time 65
Reenqueueing errored packet 582 at time 65
Additional hops: 530
Adding flit 821 as NACK at time 65
Reenqueueing errored packet 980 at time 66
Additional hops: 534
Adding flit 2547 as NACK at time 66
Additional hops: 542
Adding flit 1388 as NACK at time 66
Additional hops: 551
Adding flit 1644 as NACK at time 66
Uncorrectable 3
Additional hops: 564
Adding flit 461 as NACK at time 67
Additional hops: 574
Adding flit 684 as NACK at time 67
Reenqueueing errored packet 1584 at time 68
Additional hops: 580
Adding flit 1251 as NACK at time 68
Additional hops: 588
Adding flit 822 as NACK at time 68
Additional hops: 595
Adding flit 1200 as NACK at time 68
Reenqueueing errored packet 202 at time 69
Additional hops: 604
Adding flit 1492 as NACK at time 69
Additional hops: 615
Adding flit 686 as NACK at time 69
Additional hops: 625
Adding flit 1043 as NACK at time 69
Reenqueueing errored packet 1753 at time 71
Reenqueueing errored packet 775 at time 71
Additional hops: 628
Adding flit 3069 as NACK at time 71
Reenqueueing errored packet 1462 at time 72
Additional hops: 630
Adding flit 2914 as NACK at time 72
Additional hops: 637
Adding flit 2143 as NACK at time 73
Additional hops: 644
Adding flit 2129 as NACK at time 73
Additional hops: 647
Adding flit 3171 as NACK at time 73
Additional hops: 655
Adding flit 1417 as NACK at time 73
Additional hops: 663
Adding flit 843 as NACK at time 73
Reenqueueing errored packet 893 at time 74
Reenqueueing errored packet 1861 at time 74
Additional hops: 666
Adding flit 3143 as NACK at time 74
Additional hops: 674
Adding flit 1669 as NACK at time 74
Additional hops: 684
Adding flit 1005 as NACK at time 74
Reenqueueing errored packet 2547 at time 75
Reenqueueing errored packet 1862 at time 75
Reenqueueing errored packet 1016 at time 75
Additional hops: 694
Adding flit 724 as NACK at time 75
Reenqueueing errored packet 359 at time 76
Reenqueueing errored packet 58 at time 76
Additional hops: 702
Adding flit 1436 as NACK at time 76
Additional hops: 710
Adding flit 691 as NACK at time 76
Additional hops: 718
Adding flit 2122 as NACK at time 76
Additional hops: 723
Adding flit 2482 as NACK at time 76
Reenqueueing errored packet 2914 at time 77
Additional hops: 729
Adding flit 2282 as NACK at time 77
Reenqueueing errored packet 3069 at time 78
Reenqueueing errored packet 933 at time 78
Additional hops: 735
Adding flit 1995 as NACK at time 79
Additional hops: 741
Adding flit 1750 as NACK at time 79
Additional hops: 746
Adding flit 2490 as NACK at time 79
Reenqueueing errored packet 3171 at time 80
Reenqueueing errored packet 717 at time 80
Additional hops: 756
Adding flit 1061 as NACK at time 80
Additional hops: 760
Adding flit 2263 as NACK at time 80
Additional hops: 765
Adding flit 2402 as NACK at time 80
Reenqueueing errored packet 3143 at time 81
Reenqueueing errored packet 1251 at time 81
Reenqueueing errored packet 1480 at time 81
Reenqueueing errored packet 559 at time 81
Additional hops: 774
Adding flit 1176 as NACK at time 81
Additional hops: 779
Adding flit 2984 as NACK at time 81
Additional hops: 782
Adding flit 2704 as NACK at time 81
Additional hops: 788
Adding flit 2909 as NACK at time 82
Additional hops: 792
Adding flit 2081 as NACK at time 82
Additional hops: 802
Adding flit 867 as NACK at time 82
Reenqueueing errored packet 1200 at time 83
Reenqueueing errored packet 1388 at time 83
Reenqueueing errored packet 1445 at time 83
Additional hops: 808
Adding flit 1706 as NACK at time 83
Additional hops: 814
Adding flit 2961 as NACK at time 83
Additional hops: 821
Adding flit 1731 as NACK at time 83
Additional hops: 826
Adding flit 2130 as NACK at time 83
Additional hops: 838
Adding flit 1192 as NACK at time 83
Additional hops: 844
Adding flit 1979 as NACK at time 83
Reenqueueing errored packet 821 at time 84
Additional hops: 851
Adding flit 1745 as NACK at time 84
Reenqueueing errored packet 822 at time 85
Reenqueueing errored packet 1644 at time 85
Additional hops: 856
Adding flit 1952 as NACK at time 85
Additional hops: 863
Adding flit 1374 as NACK at time 85
Additional hops: 873
Adding flit 988 as NACK at time 85
Reenqueueing errored packet 737 at time 86
Additional hops: 877
Adding flit 2538 as NACK at time 86
Additional hops: 883
Adding flit 2569 as NACK at time 86
Reenqueueing errored packet 2482 at time 87
Additional hops: 898
Adding flit 516 as NACK at time 87
Additional hops: 905
Adding flit 2404 as NACK at time 87
Reenqueueing errored packet 2704 at time 88
Reenqueueing errored packet 2129 at time 88
Reenqueueing errored packet 2143 at time 88
Reenqueueing errored packet 1492 at time 88
Reenqueueing errored packet 684 at time 88
Additional hops: 913
Adding flit 1665 as NACK at time 88
Additional hops: 921
Adding flit 1470 as NACK at time 88
Additional hops: 928
Adding flit 1040 as NACK at time 88
Additional hops: 934
Adding flit 2339 as NACK at time 88
Additional hops: 941
Adding flit 2324 as NACK at time 88
Reenqueueing errored packet 2263 at time 89
Additional hops: 954
Adding flit 882 as NACK at time 89
Additional hops: 965
Adding flit 1288 as NACK at time 89
Additional hops: 968
Adding flit 3940 as NACK at time 89
Additional hops: 970
Adding flit 3450 as NACK at time 89
Reenqueueing errored packet 2490 at time 90
Reenqueueing errored packet 2282 at time 90
Reenqueueing errored packet 843 at time 90
Reenqueueing errored packet 1417 at time 90
Reenqueueing errored packet 1043 at time 90
Additional hops: 977
Adding flit 2438 as NACK at time 90
Additional hops: 982
Adding flit 2379 as NACK at time 90
Reenqueueing errored packet 2081 at time 91
Reenqueueing errored packet 2402 at time 91
Reenqueueing errored packet 1669 at time 91
Additional hops: 988
Adding flit 3101 as NACK at time 91
Additional hops: 997
Adding flit 1798 as NACK at time 91
Reenqueueing errored packet 2984 at time 92
Reenqueueing errored packet 1750 at time 92
Reenqueueing errored packet 1995 at time 92
Reenqueueing errored packet 686 at time 92
Additional hops: 1001
Adding flit 3778 as NACK at time 92
Reenqueueing errored packet 2122 at time 93
Reenqueueing errored packet 691 at time 93
Reenqueueing errored packet 1436 at time 93
Additional hops: 1010
Adding flit 1262 as NACK at time 93
Reenqueueing errored packet 3450 at time 94
Reenqueueing errored packet 2130 at time 94
Reenqueueing errored packet 461 at time 94
Reenqueueing errored packet 2538 at time 95
Reenqueueing errored packet 2909 at time 95
Reenqueueing errored packet 1005 at time 95
Additional hops: 1019
Adding flit 1038 as NACK at time 95
Additional hops: 1021
Adding flit 4410 as NACK at time 95
Additional hops: 1025
Adding flit 3001 as NACK at time 95
Reenqueueing errored packet 3940 at time 96
Reenqueueing errored packet 1952 at time 96
Reenqueueing errored packet 1979 at time 96
Reenqueueing errored packet 2961 at time 96
Reenqueueing errored packet 1706 at time 96
Reenqueueing errored packet 724 at time 96
Additional hops: 1034
Adding flit 1407 as NACK at time 96
Additional hops: 1040
Adding flit 1879 as NACK at time 97
Reenqueueing errored packet 1731 at time 98
Additional hops: 1046
Adding flit 1966 as NACK at time 98
Additional hops: 1049
Adding flit 3826 as NACK at time 98
Additional hops: 1056
Adding flit 1432 as NACK at time 98
Reenqueueing errored packet 2569 at time 99
Reenqueueing errored packet 1745 at time 99
Additional hops: 1064
Adding flit 1975 as NACK at time 99
Additional hops: 1075
Adding flit 1439 as NACK at time 99
Additional hops: 1083
Adding flit 2105 as NACK at time 99
Additional hops: 1097
Adding flit 389 as NACK at time 99
Reenqueueing errored packet 4410 at time 100
Reenqueueing errored packet 1374 at time 100
Reenqueueing errored packet 1176 at time 100
Additional hops: 1111
Adding flit 80 as NACK at time 100
Reenqueueing errored packet 3778 at time 101
Reenqueueing errored packet 2379 at time 101
Reenqueueing errored packet 2339 at time 101
Reenqueueing errored packet 1061 at time 101
Additional hops: 1118
Adding flit 2351 as NACK at time 101
Additional hops: 1127
Adding flit 2302 as NACK at time 101
Reenqueueing errored packet 2404 at time 102
Additional hops: 1137
Adding flit 1337 as NACK at time 102
Additional hops: 1143
Adding flit 4095 as NACK at time 102
Reenqueueing errored packet 2324 at time 103
Reenqueueing errored packet 1040 at time 103
Reenqueueing errored packet 867 at time 103
Additional hops: 1155
Adding flit 1133 as NACK at time 103
Additional hops: 1163
Adding flit 1734 as NACK at time 103
Additional hops: 1173
Adding flit 1651 as NACK at time 103
Reenqueueing errored packet 3001 at time 104
Reenqueueing errored packet 3101 at time 104
Additional hops: 1181
Adding flit 2295 as NACK at time 104
Reenqueueing errored packet 3826 at time 105
Reenqueueing errored packet 2438 at time 105
Reenqueueing errored packet 1470 at time 105
Reenqueueing errored packet 1665 at time 105
Additional hops: 1190
Adding flit 1972 as NACK at time 105
Additional hops: 1197
Adding flit 2365 as NACK at time 105
Additional hops: 1204
Adding flit 2628 as NACK at time 105
Reenqueueing errored packet 988 at time 106
Additional hops: 1211
Adding flit 2878 as NACK at time 106
Additional hops: 1219
Adding flit 2936 as NACK at time 106
Additional hops: 1226
Adding flit 3363 as NACK at time 106
Additional hops: 1228
Adding flit 4789 as NACK at time 107
Additional hops: 1233
Adding flit 4438 as NACK at time 107
Additional hops: 1236
Adding flit 4851 as NACK at time 107
Additional hops: 1248
Adding flit 1208 as NACK at time 107
Reenqueueing errored packet 1192 at time 108
Additional hops: 1254
Adding flit 4308 as NACK at time 108
Additional hops: 1261
Adding flit 2474 as NACK at time 108
Additional hops: 1272
Adding flit 1833 as NACK at time 109
Additional hops: 1278
Adding flit 3025 as NACK at time 109
Additional hops: 1284
Adding flit 3873 as NACK at time 109
Reenqueueing errored packet 1879 at time 110
Reenqueueing errored packet 1798 at time 110
Additional hops: 1293
Adding flit 2360 as NACK at time 110
Additional hops: 1300
Adding flit 2549 as NACK at time 110
Reenqueueing errored packet 1966 at time 111
Reenqueueing errored packet 4789 at time 112
Reenqueueing errored packet 1262 at time 112
Reenqueueing errored packet 1288 at time 112
Additional hops: 1309
Adding flit 2881 as NACK at time 112
Additional hops: 1316
Adding flit 2101 as NACK at time 112
Additional hops: 1322
Adding flit 3301 as NACK at time 112
Additional hops: 1328
Adding flit 4140 as NACK at time 112
Reenqueueing errored packet 1432 at time 113
Additional hops: 1331
Adding flit 5012 as NACK at time 113
Additional hops: 1341
Adding flit 1002 as NACK at time 113
Additional hops: 1352
Adding flit 1131 as NACK at time 113
Reenqueueing errored packet 4851 at time 114
Reenqueueing errored packet 1038 at time 114
Additional hops: 1359
Adding flit 3655 as NACK at time 114
Additional hops: 1368
Adding flit 2217 as NACK at time 114
Additional hops: 1376
Adding flit 2039 as NACK at time 114
Reenqueueing errored packet 4095 at time 115
Reenqueueing errored packet 1407 at time 115
Additional hops: 1384
Adding flit 2175 as NACK at time 115
Additional hops: 1394
Adding flit 2044 as NACK at time 115
Reenqueueing errored packet 2351 at time 116
Reenqueueing errored packet 2105 at time 116
Reenqueueing errored packet 1975 at time 116
Reenqueueing errored packet 882 at time 116
Additional hops: 1399
Adding flit 2882 as NACK at time 116
Additional hops: 1403
Adding flit 4686 as NACK at time 117
Reenqueueing errored packet 4438 at time 118
Reenqueueing errored packet 516 at time 118
Additional hops: 1413
Adding flit 2886 as NACK at time 118
Additional hops: 1418
Adding flit 4586 as NACK at time 118
Additional hops: 1421
Adding flit 4811 as NACK at time 119
Additional hops: 1430
Adding flit 2373 as NACK at time 119
Additional hops: 1434
Adding flit 4736 as NACK at time 119
Reenqueueing errored packet 5012 at time 120
Reenqueueing errored packet 2628 at time 120
Reenqueueing errored packet 2365 at time 120
Reenqueueing errored packet 1734 at time 120
Reenqueueing errored packet 2302 at time 120
Additional hops: 1441
Adding flit 2382 as NACK at time 120
Additional hops: 1454
Adding flit 839 as NACK at time 120
Additional hops: 1459
Adding flit 3860 as NACK at time 120
Reenqueueing errored packet 4308 at time 121
Reenqueueing errored packet 3363 at time 121
Reenqueueing errored packet 2878 at time 121
Reenqueueing errored packet 2295 at time 121
Additional hops: 1462
Adding flit 5672 as NACK at time 121
Reenqueueing errored packet 3873 at time 122
Reenqueueing errored packet 3025 at time 122
Additional hops: 1472
Adding flit 1506 as NACK at time 122
Reenqueueing errored packet 2474 at time 123
Reenqueueing errored packet 2936 at time 123
Reenqueueing errored packet 1337 at time 123
Additional hops: 1479
Adding flit 3581 as NACK at time 123
Additional hops: 1486
Adding flit 2560 as NACK at time 123
Additional hops: 1495
Adding flit 2885 as NACK at time 123
Additional hops: 1503
Adding flit 2392 as NACK at time 123
Reenqueueing errored packet 1972 at time 124
Reenqueueing errored packet 1651 at time 124
Additional hops: 1511
Adding flit 3565 as NACK at time 124
Additional hops: 1515
Adding flit 4701 as NACK at time 124
Additional hops: 1526
Adding flit 1454 as NACK at time 124
Reenqueueing errored packet 4140 at time 125
Reenqueueing errored packet 3301 at time 125
Reenqueueing errored packet 2549 at time 125
Additional hops: 1528
Adding flit 5390 as NACK at time 125
Additional hops: 1538
Adding flit 2402 as NACK at time 125
Additional hops: 1546
Adding flit 2431 as NACK at time 125
Reenqueueing errored packet 4811 at time 126
Reenqueueing errored packet 4686 at time 126
Additional hops: 1553
Adding flit 3295 as NACK at time 126
Reenqueueing errored packet 2882 at time 127
Reenqueueing errored packet 2101 at time 127
Additional hops: 1556
Adding flit 5885 as NACK at time 127
Additional hops: 1561
Adding flit 4434 as NACK at time 127
Additional hops: 1572
Adding flit 1715 as NACK at time 127
Additional hops: 1576
Adding flit 3640 as NACK at time 127
Reenqueueing errored packet 5672 at time 128
Reenqueueing errored packet 4736 at time 128
Reenqueueing errored packet 389 at time 128
Reenqueueing errored packet 4586 at time 129
Reenqueueing errored packet 3655 at time 129
Reenqueueing errored packet 2360 at time 129
Reenqueueing errored packet 80 at time 129
Reenqueueing errored packet 5390 at time 130
Additional hops: 1584
Adding flit 2594 as NACK at time 130
Reenqueueing errored packet 3860 at time 131
Reenqueueing errored packet 2039 at time 131
Reenqueueing errored packet 2881 at time 131
Additional hops: 1586
Adding flit 6201 as NACK at time 131
Reenqueueing errored packet 2175 at time 132
Reenqueueing errored packet 1833 at time 132
Reenqueueing errored packet 1208 at time 132
Additional hops: 1591
Adding flit 3763 as NACK at time 132
Additional hops: 1598
Adding flit 4512 as NACK at time 132
Reenqueueing errored packet 4701 at time 133
Reenqueueing errored packet 2217 at time 133
Additional hops: 1602
Adding flit 5666 as NACK at time 133
Reenqueueing errored packet 5885 at time 134
Reenqueueing errored packet 1002 at time 134
Additional hops: 1612
Adding flit 2479 as NACK at time 134
Additional hops: 1621
Adding flit 2348 as NACK at time 134
Reenqueueing errored packet 2382 at time 135
Additional hops: 1623
Adding flit 4963 as NACK at time 135
Additional hops: 1628
Adding flit 5444 as NACK at time 135
Additional hops: 1634
Adding flit 3931 as NACK at time 135
Additional hops: 1639
Adding flit 4734 as NACK at time 135
Reenqueueing errored packet 6201 at time 136
Reenqueueing errored packet 3640 at time 136
Reenqueueing errored packet 2044 at time 136
Reenqueueing errored packet 1131 at time 136
Additional hops: 1649
Adding flit 2807 as NACK at time 136
Additional hops: 1651
Adding flit 6619 as NACK at time 137
Additional hops: 1657
Adding flit 3097 as NACK at time 137
Additional hops: 1673
Adding flit 2122 as NACK at time 137
Reenqueueing errored packet 4434 at time 138
Reenqueueing errored packet 2560 at time 138
Reenqueueing errored packet 3581 at time 138
Reenqueueing errored packet 2373 at time 138
Additional hops: 1678
Adding flit 4187 as NACK at time 138
Reenqueueing errored packet 2886 at time 139
Reenqueueing errored packet 4963 at time 140
Reenqueueing errored packet 2392 at time 140
Additional hops: 1681
Adding flit 6159 as NACK at time 140
Additional hops: 1687
Adding flit 3584 as NACK at time 140
Reenqueueing errored packet 3295 at time 141
Reenqueueing errored packet 3565 at time 141
Additional hops: 1690
Adding flit 6668 as NACK at time 141
Additional hops: 1694
Adding flit 5415 as NACK at time 141
Additional hops: 1701
Adding flit 3435 as NACK at time 141
Reenqueueing errored packet 6619 at time 142
Reenqueueing errored packet 5666 at time 142
Reenqueueing errored packet 2431 at time 142
Reenqueueing errored packet 2885 at time 142
Additional hops: 1704
Adding flit 6658 as NACK at time 142
Additional hops: 1713
Adding flit 3515 as NACK at time 142
Additional hops: 1719
Adding flit 3266 as NACK at time 142
Additional hops: 1725
Adding flit 4282 as NACK at time 142
Reenqueueing errored packet 3763 at time 143
Additional hops: 1734
Adding flit 3792 as NACK at time 143
Additional hops: 1743
Adding flit 2606 as NACK at time 143
Additional hops: 1748
Adding flit 3899 as NACK at time 143
Additional hops: 1758
Adding flit 3110 as NACK at time 143
Additional hops: 1760
Adding flit 5112 as NACK at time 144
Additional hops: 1767
Adding flit 4098 as NACK at time 144
Additional hops: 1774
Adding flit 5412 as NACK at time 144
Additional hops: 1780
Adding flit 4616 as NACK at time 145
Additional hops: 1790
Adding flit 2272 as NACK at time 145
Additional hops: 1796
Adding flit 4078 as NACK at time 145
Reenqueueing errored packet 4734 at time 146
Reenqueueing errored packet 5444 at time 146
Reenqueueing errored packet 2402 at time 146
Additional hops: 1810
Adding flit 282 as NACK at time 146
Reenqueueing errored packet 6159 at time 147
Reenqueueing errored packet 4512 at time 147
Reenqueueing errored packet 2594 at time 147
Reenqueueing errored packet 1454 at time 147
Reenqueueing errored packet 839 at time 147
Additional hops: 1821
Adding flit 4000 as NACK at time 147
Additional hops: 1827
Adding flit 3827 as NACK at time 147
Additional hops: 1836
Adding flit 2762 as NACK at time 147
Additional hops: 1845
Adding flit 3419 as NACK at time 147
Reenqueueing errored packet 6668 at time 148
Reenqueueing errored packet 3931 at time 148
Reenqueueing errored packet 5112 at time 149
Reenqueueing errored packet 6658 at time 149
Reenqueueing errored packet 4187 at time 149
Additional hops: 1850
Adding flit 6117 as NACK at time 149
Reenqueueing errored packet 5415 at time 150
Reenqueueing errored packet 3097 at time 150
Reenqueueing errored packet 1715 at time 150
Additional hops: 1854
Adding flit 5411 as NACK at time 151
Additional hops: 1864
Adding flit 2102 as NACK at time 152
Reenqueueing errored packet 3584 at time 153
Reenqueueing errored packet 2348 at time 153
Additional hops: 1868
Adding flit 6734 as NACK at time 153
Additional hops: 1875
Adding flit 3121 as NACK at time 153
Reenqueueing errored packet 3899 at time 154
Additional hops: 1885
Adding flit 2557 as NACK at time 154
Additional hops: 1891
Adding flit 5059 as NACK at time 154
Additional hops: 1899
Adding flit 4587 as NACK at time 154
Reenqueueing errored packet 4282 at time 155
Reenqueueing errored packet 3266 at time 155
Reenqueueing errored packet 2479 at time 155
Additional hops: 1905
Adding flit 3016 as NACK at time 155
Additional hops: 1911
Adding flit 4527 as NACK at time 155
Reenqueueing errored packet 3435 at time 156
Additional hops: 1917
Adding flit 3366 as NACK at time 156
Additional hops: 1922
Adding flit 5501 as NACK at time 156
Reenqueueing errored packet 2807 at time 157
Additional hops: 1923
Adding flit 7802 as NACK at time 157
Additional hops: 1930
Adding flit 3377 as NACK at time 157
Additional hops: 1937
Adding flit 3662 as NACK at time 157
Additional hops: 1949
Adding flit 2157 as NACK at time 157
Reenqueueing errored packet 4078 at time 158
Reenqueueing errored packet 4616 at time 158
Additional hops: 1955
Adding flit 5020 as NACK at time 158
Additional hops: 1963
Adding flit 4358 as NACK at time 158
Additional hops: 1968
Adding flit 5809 as NACK at time 158
Additional hops: 1972
Adding flit 4405 as NACK at time 158
Reenqueueing errored packet 5412 at time 159
Reenqueueing errored packet 4098 at time 159
Additional hops: 1978
Adding flit 4297 as NACK at time 159
Additional hops: 1983
Adding flit 5716 as NACK at time 159
Reenqueueing errored packet 7802 at time 160
Reenqueueing errored packet 5411 at time 160
Reenqueueing errored packet 6117 at time 160
Reenqueueing errored packet 3827 at time 160
Additional hops: 1992
Adding flit 3027 as NACK at time 160
Additional hops: 1996
Adding flit 5608 as NACK at time 160
Additional hops: 2006
Adding flit 2459 as NACK at time 160
Additional hops: 2013
Adding flit 4143 as NACK at time 160
Reenqueueing errored packet 3515 at time 161
Additional hops: 2017
Adding flit 5571 as NACK at time 161
Additional hops: 2027
Adding flit 3120 as NACK at time 161
Reenqueueing errored packet 6734 at time 162
Reenqueueing errored packet 2606 at time 162
Reenqueueing errored packet 3792 at time 162
Additional hops: 2030
Adding flit 7127 as NACK at time 162
Additional hops: 2041
Adding flit 2673 as NACK at time 163
Additional hops: 2049
Adding flit 3514 as NACK at time 163
Reenqueueing errored packet 3110 at time 164
Additional hops: 2052
Adding flit 5756 as NACK at time 164
Additional hops: 2057
Adding flit 5042 as NACK at time 165
Additional hops: 2059
Adding flit 7719 as NACK at time 165
Additional hops: 2066
Adding flit 4500 as NACK at time 165
Reenqueueing errored packet 3419 at time 166
Reenqueueing errored packet 2762 at time 166
Reenqueueing errored packet 2272 at time 166
Additional hops: 2078
Adding flit 2040 as NACK at time 166
Additional hops: 2085
Adding flit 3192 as NACK at time 166
Additional hops: 2092
Adding flit 3345 as NACK at time 166
Reenqueueing errored packet 4405 at time 167
Reenqueueing errored packet 5501 at time 167
Reenqueueing errored packet 5059 at time 167
Additional hops: 2096
Adding flit 7239 as NACK at time 167
Additional hops: 2102
Adding flit 6177 as NACK at time 167
Reenqueueing errored packet 4527 at time 168
Reenqueueing errored packet 3016 at time 168
Reenqueueing errored packet 3121 at time 168
Additional hops: 2112
Adding flit 2271 as NACK at time 168
Additional hops: 2116
Adding flit 6267 as NACK at time 168
Reenqueueing errored packet 7127 at time 169
Reenqueueing errored packet 5608 at time 169
Reenqueueing errored packet 5809 at time 169
Reenqueueing errored packet 3366 at time 169
Additional hops: 2123
Adding flit 4387 as NACK at time 169
Additional hops: 2130
Adding flit 4015 as NACK at time 169
Additional hops: 2133
Adding flit 8155 as NACK at time 169
Reenqueueing errored packet 7719 at time 170
Reenqueueing errored packet 5571 at time 170
Reenqueueing errored packet 5716 at time 170
Reenqueueing errored packet 4000 at time 170
Reenqueueing errored packet 2122 at time 170
Reenqueueing errored packet 5756 at time 171
Reenqueueing errored packet 5020 at time 171
Reenqueueing errored packet 4587 at time 171
Additional hops: 2145
Adding flit 2460 as NACK at time 171
Additional hops: 2151
Adding flit 5082 as NACK at time 171
Additional hops: 2158
Adding flit 3127 as NACK at time 171
Reenqueueing errored packet 4297 at time 172
Reenqueueing errored packet 3662 at time 172
Reenqueueing errored packet 3377 at time 172
Additional hops: 2163
Adding flit 4278 as NACK at time 172
Additional hops: 2174
Adding flit 2583 as NACK at time 172
Additional hops: 2182
Adding flit 3107 as NACK at time 172
Additional hops: 2187
Adding flit 5454 as NACK at time 172
Reenqueueing errored packet 2102 at time 173
Additional hops: 2195
Adding flit 3410 as NACK at time 174
Reenqueueing errored packet 4143 at time 175
Reenqueueing errored packet 4358 at time 175
Reenqueueing errored packet 2557 at time 175
Reenqueueing errored packet 282 at time 175
Additional hops: 2199
Adding flit 8240 as NACK at time 175
Reenqueueing errored packet 8155 at time 176
Reenqueueing errored packet 7239 at time 176
Reenqueueing errored packet 5042 at time 176
Additional hops: 2207
Adding flit 3589 as NACK at time 176
Additional hops: 2223
Adding flit 1436 as NACK at time 176
Additional hops: 2227
Adding flit 7376 as NACK at time 176
Reenqueueing errored packet 6267 at time 177
Additional hops: 2231
Adding flit 6506 as NACK at time 177
Additional hops: 2236
Adding flit 6430 as NACK at time 177
Additional hops: 2243
Adding flit 4911 as NACK at time 178
Additional hops: 2250
Adding flit 4099 as NACK at time 178
Additional hops: 2251
Adding flit 8911 as NACK at time 178
Additional hops: 2257
Adding flit 3447 as NACK at time 178
Reenqueueing errored packet 3027 at time 179
Additional hops: 2265
Adding flit 5006 as NACK at time 179
Additional hops: 2271
Adding flit 5975 as NACK at time 179
Additional hops: 2283
Adding flit 1886 as NACK at time 179
Additional hops: 2294
Adding flit 2570 as NACK at time 179
Reenqueueing errored packet 6177 at time 180
Reenqueueing errored packet 4500 at time 180
Reenqueueing errored packet 3514 at time 180
Additional hops: 2299
Adding flit 4733 as NACK at time 180
Additional hops: 2303
Adding flit 7611 as NACK at time 180
Reenqueueing errored packet 8911 at time 181
Reenqueueing errored packet 3345 at time 181
Reenqueueing errored packet 3192 at time 181
Reenqueueing errored packet 2459 at time 181
Additional hops: 2311
Adding flit 3626 as NACK at time 181
Additional hops: 2318
Adding flit 3502 as NACK at time 181
Reenqueueing errored packet 3120 at time 182
Reenqueueing errored packet 2157 at time 182
Additional hops: 2327
Adding flit 3453 as NACK at time 182
Additional hops: 2331
Adding flit 6687 as NACK at time 182
Additional hops: 2340
Adding flit 4618 as NACK at time 182
Reenqueueing errored packet 5454 at time 183
Reenqueueing errored packet 4278 at time 183
Additional hops: 2342
Adding flit 7091 as NACK at time 183
Additional hops: 2351
Adding flit 3473 as NACK at time 183
Reenqueueing errored packet 8240 at time 184
Reenqueueing errored packet 5082 at time 184
Reenqueueing errored packet 4015 at time 184
Reenqueueing errored packet 4387 at time 184
Reenqueueing errored packet 7376 at time 185
Additional hops: 2359
Adding flit 4547 as NACK at time 185
Reenqueueing errored packet 6506 at time 186
Reenqueueing errored packet 3127 at time 186
Reenqueueing errored packet 2673 at time 186
Additional hops: 2362
Adding flit 7383 as NACK at time 186
Additional hops: 2372
Adding flit 2736 as NACK at time 187
Additional hops: 2378
Adding flit 5789 as NACK at time 187
Reenqueueing errored packet 7091 at time 188
Reenqueueing errored packet 6430 at time 188
Additional hops: 2382
Adding flit 8529 as NACK at time 188
Additional hops: 2390
Adding flit 4151 as NACK at time 188
Additional hops: 2395
Adding flit 5266 as NACK at time 188
Reenqueueing errored packet 7611 at time 189
Reenqueueing errored packet 3107 at time 189
Reenqueueing errored packet 2271 at time 189
Additional hops: 2398
Adding flit 7836 as NACK at time 189
Additional hops: 2405
Adding flit 5642 as NACK at time 189
Additional hops: 2411
Adding flit 7155 as NACK at time 190
Additional hops: 2419
Adding flit 5988 as NACK at time 190
Reenqueueing errored packet 6687 at time 191
Reenqueueing errored packet 4733 at time 191
Reenqueueing errored packet 3447 at time 191
Reenqueueing errored packet 3410 at time 191
Reenqueueing errored packet 2040 at time 191
Additional hops: 2426
Adding flit 3864 as NACK at time 191
Reenqueueing errored packet 5975 at time 192
Additional hops: 2433
Adding flit 4756 as NACK at time 192
Reenqueueing errored packet 7383 at time 193
Reenqueueing errored packet 4099 at time 193
Reenqueueing errored packet 4911 at time 193
Reenqueueing errored packet 3589 at time 193
Additional hops: 2442
Adding flit 3797 as NACK at time 193
Additional hops: 2454
Adding flit 4061 as NACK at time 193
Additional hops: 2469
Adding flit 1894 as NACK at time 193
Additional hops: 2476
Adding flit 5423 as NACK at time 194
Reenqueueing errored packet 2583 at time 195
Additional hops: 2486
Adding flit 4660 as NACK at time 195
Additional hops: 2489
Adding flit 8276 as NACK at time 195
Additional hops: 2496
Adding flit 7191 as NACK at time 195
Reenqueueing errored packet 7836 at time 196
Reenqueueing errored packet 3502 at time 196
Reenqueueing errored packet 5006 at time 196
Reenqueueing errored packet 2460 at time 196
Additional hops: 2501
Adding flit 8496 as NACK at time 196
Additional hops: 2509
Adding flit 4238 as NACK at time 196
Reenqueueing errored packet 8529 at time 197
Additional hops: 2515
Adding flit 6236 as NACK at time 197
Additional hops: 2520
Adding flit 8290 as NACK at time 197
Reenqueueing errored packet 3626 at time 198
Additional hops: 2528
Adding flit 4063 as NACK at time 198
Additional hops: 2531
Adding flit 9611 as NACK at time 198
Additional hops: 2541
Adding flit 4357 as NACK at time 198
Additional hops: 2548
Adding flit 4791 as NACK at time 198
Reenqueueing errored packet 5266 at time 199
Additional hops: 2553
Adding flit 7515 as NACK at time 199
Additional hops: 2561
Adding flit 3833 as NACK at time 199
Additional hops: 2568
Adding flit 4141 as NACK at time 199
Additional hops: 2574
Adding flit 3887 as NACK at time 199
Additional hops: 2584
Adding flit 3624 as NACK at time 199
Additional hops: 2593
Adding flit 3788 as NACK at time 199
Reenqueueing errored packet 5789 at time 200
Additional hops: 2601
Adding flit 6489 as NACK at time 200
Additional hops: 2617
Adding flit 1669 as NACK at time 200
Reenqueueing errored packet 4618 at time 201
Reenqueueing errored packet 3453 at time 201
Additional hops: 2625
Adding flit 6086 as NACK at time 201
Additional hops: 2633
Adding flit 4031 as NACK at time 201
Additional hops: 2642
Adding flit 2842 as NACK at time 201
Additional hops: 2645
Adding flit 8304 as NACK at time 201
Reenqueueing errored packet 8276 at time 202
Reenqueueing errored packet 4547 at time 202
Reenqueueing errored packet 3473 at time 202
Reenqueueing errored packet 2570 at time 202
Reenqueueing errored packet 7155 at time 203
Additional hops: 2655
Adding flit 4479 as NACK at time 203
Additional hops: 2662
Adding flit 5386 as NACK at time 203
Reenqueueing errored packet 5642 at time 204
Reenqueueing errored packet 1886 at time 204
Additional hops: 2667
Adding flit 8946 as NACK at time 204
Additional hops: 2672
Adding flit 7046 as NACK at time 204
Reenqueueing errored packet 9611 at time 205
Reenqueueing errored packet 4151 at time 205
Additional hops: 2679
Adding flit 6745 as NACK at time 205
Additional hops: 2687
Adding flit 6443 as NACK at time 205
Additional hops: 2691
Adding flit 8445 as NACK at time 205
Additional hops: 2697
Adding flit 5521 as NACK at time 205
Additional hops: 2704
Adding flit 4521 as NACK at time 205
Additional hops: 2711
Adding flit 4025 as NACK at time 205
Reenqueueing errored packet 3864 at time 206
Reenqueueing errored packet 8496 at time 207
Reenqueueing errored packet 4756 at time 207
Reenqueueing errored packet 5988 at time 207
Additional hops: 2716
Adding flit 5805 as NACK at time 207
Additional hops: 2719
Adding flit 8563 as NACK at time 207
Reenqueueing errored packet 8304 at time 208
Reenqueueing errored packet 8290 at time 208
Reenqueueing errored packet 2736 at time 208
Additional hops: 2727
Adding flit 4170 as NACK at time 208
Additional hops: 2734
Adding flit 7453 as NACK at time 208
Additional hops: 2743
Adding flit 3483 as NACK at time 208
Additional hops: 2748
Adding flit 7440 as NACK at time 208
Additional hops: 2751
Adding flit 9960 as NACK at time 208
Additional hops: 2762
Adding flit 3815 as NACK at time 208
Reenqueueing errored packet 5423 at time 209
Reenqueueing errored packet 1436 at time 209
Additional hops: 2764
Adding flit 8640 as NACK at time 209
Additional hops: 2772
Adding flit 4910 as NACK at time 209
Additional hops: 2779
Adding flit 6561 as NACK at time 209
Reenqueueing errored packet 7515 at time 210
Reenqueueing errored packet 6236 at time 210
Reenqueueing errored packet 7191 at time 210
Additional hops: 2783
Adding flit 8229 as NACK at time 210
Additional hops: 2793
Adding flit 3141 as NACK at time 210
Additional hops: 2797
Adding flit 7447 as NACK at time 211
Reenqueueing errored packet 3887 at time 212
Reenqueueing errored packet 3797 at time 212
Additional hops: 2801
Adding flit 6246 as NACK at time 212
Additional hops: 2808
Adding flit 5044 as NACK at time 212
Additional hops: 2816
Adding flit 5675 as NACK at time 212
Additional hops: 2823
Adding flit 7343 as NACK at time 212
Additional hops: 2832
Adding flit 4388 as NACK at time 212
Additional hops: 2842
Adding flit 3853 as NACK at time 212
Reenqueueing errored packet 4791 at time 213
Reenqueueing errored packet 4238 at time 213
Uncorrectable 3
Additional hops: 2858
Adding flit 2295 as NACK at time 213
Additional hops: 2862
Adding flit 10071 as NACK at time 213
Additional hops: 2875
Adding flit 2737 as NACK at time 213
Additional hops: 2885
Adding flit 4571 as NACK at time 213
Reenqueueing errored packet 8640 at time 214
Reenqueueing errored packet 8563 at time 214
Reenqueueing errored packet 8445 at time 214
Reenqueueing errored packet 4141 at time 214
Additional hops: 2889
Adding flit 9398 as NACK at time 214
Additional hops: 2893
Adding flit 9640 as NACK at time 214
Additional hops: 2898
Adding flit 10048 as NACK at time 214
Additional hops: 2911
Adding flit 3250 as NACK at time 214
Reenqueueing errored packet 9960 at time 215
Reenqueueing errored packet 7046 at time 215
Reenqueueing errored packet 8946 at time 215
Reenqueueing errored packet 4063 at time 215
Additional hops: 2917
Adding flit 4790 as NACK at time 215
Additional hops: 2918
Adding flit 10789 as NACK at time 215
Additional hops: 2923
Adding flit 7600 as NACK at time 215
Additional hops: 2928
Adding flit 7410 as NACK at time 215
Additional hops: 2935
Adding flit 4540 as NACK at time 215
Reenqueueing errored packet 3833 at time 216
Reenqueueing errored packet 4660 at time 216
Additional hops: 2940
Adding flit 8208 as NACK at time 216
Additional hops: 2944
Adding flit 7513 as NACK at time 216
Reenqueueing errored packet 6489 at time 217
Additional hops: 2953
Adding flit 4953 as NACK at time 217
Additional hops: 2963
Adding flit 4128 as NACK at time 217
Reenqueueing errored packet 10789 at time 218
Reenqueueing errored packet 5805 at time 218
Reenqueueing errored packet 5521 at time 218
Reenqueueing errored packet 5386 at time 218
Reenqueueing errored packet 4031 at time 218
Reenqueueing errored packet 6086 at time 218
Reenqueueing errored packet 3788 at time 218
Reenqueueing errored packet 4061 at time 218
Additional hops: 2969
Adding flit 9504 as NACK at time 218
Reenqueueing errored packet 8229 at time 219
Reenqueueing errored packet 7440 at time 219
Reenqueueing errored packet 4357 at time 219
Reenqueueing errored packet 7447 at time 220
Reenqueueing errored packet 4025 at time 220
Reenqueueing errored packet 4521 at time 220
Reenqueueing errored packet 6745 at time 220
Reenqueueing errored packet 2842 at time 220
Reenqueueing errored packet 3624 at time 220
Additional hops: 2979
Adding flit 5676 as NACK at time 220
Additional hops: 2982
Adding flit 10471 as NACK at time 220
Additional hops: 2987
Adding flit 7434 as NACK at time 220
Additional hops: 2995
Adding flit 8109 as NACK at time 220
Additional hops: 3003
Adding flit 7902 as NACK at time 220
Reenqueueing errored packet 6246 at time 221
Additional hops: 3009
Adding flit 7502 as NACK at time 221
Additional hops: 3017
Adding flit 4244 as NACK at time 221
Additional hops: 3024
Adding flit 6893 as NACK at time 221
Additional hops: 3026
Adding flit 10972 as NACK at time 221
Reenqueueing errored packet 10071 at time 222
Reenqueueing errored packet 6443 at time 222
Additional hops: 3037
Adding flit 3893 as NACK at time 222
Additional hops: 3044
Adding flit 6909 as NACK at time 222
Additional hops: 3056
Adding flit 2670 as NACK at time 222
Additional hops: 3058
Adding flit 10347 as NACK at time 222
Additional hops: 3062
Adding flit 8820 as NACK at time 222
Reenqueueing errored packet 9640 at time 223
Reenqueueing errored packet 9398 at time 223
Reenqueueing errored packet 7453 at time 223
Additional hops: 3065
Adding flit 9890 as NACK at time 223
Reenqueueing errored packet 6561 at time 224
Reenqueueing errored packet 4479 at time 224
Reenqueueing errored packet 1894 at time 224
Additional hops: 3068
Adding flit 9718 as NACK at time 224
Additional hops: 3072
Adding flit 10352 as NACK at time 224
Reenqueueing errored packet 7513 at time 225
Reenqueueing errored packet 10048 at time 225
Reenqueueing errored packet 4170 at time 225
Additional hops: 3076
Adding flit 9389 as NACK at time 225
Reenqueueing errored packet 10972 at time 226
Reenqueueing errored packet 7410 at time 226
Reenqueueing errored packet 7600 at time 226
Reenqueueing errored packet 4910 at time 226
Additional hops: 3083
Adding flit 6868 as NACK at time 226
Additional hops: 3091
Adding flit 6118 as NACK at time 226
Reenqueueing errored packet 10347 at time 227
Reenqueueing errored packet 10471 at time 227
Reenqueueing errored packet 8208 at time 227
Reenqueueing errored packet 7343 at time 227
Reenqueueing errored packet 5044 at time 227
Reenqueueing errored packet 3483 at time 227
Additional hops: 3095
Adding flit 9422 as NACK at time 227
Additional hops: 3098
Adding flit 7066 as NACK at time 227
Additional hops: 3104
Adding flit 6769 as NACK at time 227
Reenqueueing errored packet 4790 at time 228
Additional hops: 3109
Adding flit 10838 as NACK at time 228
Additional hops: 3114
Adding flit 8385 as NACK at time 228
Additional hops: 3122
Adding flit 6295 as NACK at time 228
Reenqueueing errored packet 5675 at time 229
Additional hops: 3129
Adding flit 8080 as NACK at time 229
Additional hops: 3132
Adding flit 11116 as NACK at time 229
Additional hops: 3140
Adding flit 7244 as NACK at time 229
Reenqueueing errored packet 9890 at time 230
Reenqueueing errored packet 4540 at time 230
Additional hops: 3152
Adding flit 3028 as NACK at time 230
Additional hops: 3156
Adding flit 10889 as NACK at time 230
Additional hops: 3163
Adding flit 6152 as NACK at time 230
Additional hops: 3169
Adding flit 6191 as NACK at time 230
Reenqueueing errored packet 9718 at time 231
Reenqueueing errored packet 8820 at time 231
Reenqueueing errored packet 7434 at time 231
Reenqueueing errored packet 9504 at time 231
Reenqueueing errored packet 4388 at time 231
Reenqueueing errored packet 3141 at time 231
Reenqueueing errored packet 3815 at time 231
Additional hops: 3175
Adding flit 6544 as NACK at time 231
Additional hops: 3182
Adding flit 8595 as NACK at time 232
Reenqueueing errored packet 10352 at time 233
Reenqueueing errored packet 3853 at time 233
Reenqueueing errored packet 1669 at time 233
Reenqueueing errored packet 7066 at time 234
Reenqueueing errored packet 9389 at time 234
Reenqueueing errored packet 7502 at time 234
Reenqueueing errored packet 4571 at time 234
Additional hops: 3188
Adding flit 6627 as NACK at time 234
Additional hops: 3196
Adding flit 4719 as NACK at time 234
Additional hops: 3203
Adding flit 7649 as NACK at time 234
Additional hops: 3213
Adding flit 3949 as NACK at time 235
Additional hops: 3222
Adding flit 4142 as NACK at time 235
Additional hops: 3233
Adding flit 3963 as NACK at time 235
Additional hops: 3242
Adding flit 6583 as NACK at time 235
Reenqueueing errored packet 11116 at time 236
Reenqueueing errored packet 9422 at time 236
Reenqueueing errored packet 6893 at time 236
Reenqueueing errored packet 4953 at time 236
Additional hops: 3244
Adding flit 11699 as NACK at time 236
Reenqueueing errored packet 6909 at time 237
Reenqueueing errored packet 7902 at time 237
Reenqueueing errored packet 8109 at time 237
Additional hops: 3252
Adding flit 4738 as NACK at time 237
Additional hops: 3259
Adding flit 5954 as NACK at time 237
Reenqueueing errored packet 4244 at time 238
Reenqueueing errored packet 4128 at time 238
Additional hops: 3267
Adding flit 5078 as NACK at time 238
Reenqueueing errored packet 10889 at time 239
Reenqueueing errored packet 8385 at time 239
Reenqueueing errored packet 10838 at time 239
Additional hops: 3276
Adding flit 5252 as NACK at time 239
Reenqueueing errored packet 6769 at time 240
Reenqueueing errored packet 2737 at time 240
Additional hops: 3282
Adding flit 6895 as NACK at time 240
Additional hops: 3286
Adding flit 9548 as NACK at time 240
Reenqueueing errored packet 11699 at time 241
Reenqueueing errored packet 6868 at time 241
Reenqueueing errored packet 5676 at time 241
Reenqueueing errored packet 3250 at time 241
Additional hops: 3291
Adding flit 9386 as NACK at time 242
Additional hops: 3295
Adding flit 9338 as NACK at time 242
Additional hops: 3298
Adding flit 7792 as NACK at time 242
Additional hops: 3304
Adding flit 5150 as NACK at time 242
Reenqueueing errored packet 6191 at time 243
Reenqueueing errored packet 6118 at time 243
Additional hops: 3306
Adding flit 11985 as NACK at time 243
Additional hops: 3310
Adding flit 8038 as NACK at time 243
Reenqueueing errored packet 6544 at time 244
Reenqueueing errored packet 8080 at time 244
Reenqueueing errored packet 6152 at time 245
Reenqueueing errored packet 6295 at time 245
Reenqueueing errored packet 3893 at time 245
Additional hops: 3323
Adding flit 3744 as NACK at time 245
Additional hops: 3333
Adding flit 3900 as NACK at time 245
Reenqueueing errored packet 7244 at time 246
Reenqueueing errored packet 2295 at time 246
Additional hops: 3337
Adding flit 9464 as NACK at time 246
Additional hops: 3345
Adding flit 5872 as NACK at time 246
Reenqueueing errored packet 6627 at time 247
Reenqueueing errored packet 8595 at time 247
Reenqueueing errored packet 2670 at time 247
Reenqueueing errored packet 11985 at time 248
Additional hops: 3349
Adding flit 11640 as NACK at time 248
Additional hops: 3354
Adding flit 10300 as NACK at time 248
Additional hops: 3361
Adding flit 5972 as NACK at time 248
Additional hops: 3369
Adding flit 8362 as NACK at time 248
Reenqueueing errored packet 7792 at time 249
Reenqueueing errored packet 9548 at time 249
Reenqueueing errored packet 7649 at time 249
Additional hops: 3375
Adding flit 8710 as NACK at time 249
Additional hops: 3379
Adding flit 6730 as NACK at time 249
Additional hops: 3401
Adding flit 40 as NACK at time 250
Additional hops: 3407
Adding flit 7522 as NACK at time 250
Additional hops: 3409
Adding flit 12321 as NACK at time 250
Additional hops: 3412
Adding flit 12181 as NACK at time 250
Reenqueueing errored packet 9338 at time 251
Reenqueueing errored packet 4719 at time 251
Additional hops: 3417
Adding flit 10105 as NACK at time 251
Reenqueueing errored packet 8038 at time 252
Reenqueueing errored packet 5954 at time 252
Additional hops: 3422
Adding flit 7912 as NACK at time 252
Additional hops: 3432
Adding flit 5271 as NACK at time 252
Additional hops: 3443
Adding flit 4988 as NACK at time 252
Reenqueueing errored packet 9386 at time 253
Reenqueueing errored packet 6895 at time 253
Additional hops: 3451
Adding flit 6025 as NACK at time 253
Additional hops: 3455
Adding flit 7524 as NACK at time 253
Additional hops: 3465
Adding flit 7237 as NACK at time 253
Reenqueueing errored packet 4738 at time 254
Reenqueueing errored packet 6583 at time 254
Reenqueueing errored packet 4142 at time 254
Additional hops: 3477
Adding flit 4197 as NACK at time 254
Additional hops: 3487
Adding flit 4491 as NACK at time 254
Additional hops: 3490
Adding flit 11093 as NACK at time 254
Additional hops: 3495
Adding flit 9287 as NACK at time 254
Reenqueueing errored packet 12321 at time 255
Reenqueueing errored packet 9464 at time 255
Reenqueueing errored packet 5150 at time 255
Reenqueueing errored packet 5078 at time 255
Reenqueueing errored packet 3028 at time 255
Reenqueueing errored packet 3949 at time 256
Reenqueueing errored packet 12181 at time 257
Reenqueueing errored packet 11640 at time 257
Additional hops: 3515
Adding flit 1337 as NACK at time 257
Reenqueueing errored packet 6730 at time 258
Reenqueueing errored packet 5252 at time 258
Reenqueueing errored packet 3963 at time 258
Additional hops: 3522
Adding flit 8503 as NACK at time 258
Reenqueueing errored packet 10300 at time 259
Additional hops: 3529
Adding flit 10308 as NACK at time 259
Additional hops: 3539
Adding flit 6034 as NACK at time 260
Additional hops: 3543
Adding flit 9336 as NACK at time 260
Additional hops: 3549
Adding flit 8561 as NACK at time 260
Reenqueueing errored packet 11093 at time 261
Additional hops: 3553
Adding flit 9541 as NACK at time 261
Reenqueueing errored packet 7524 at time 262
Reenqueueing errored packet 8710 at time 262
Additional hops: 3564
Adding flit 3736 as NACK at time 262
Additional hops: 3567
Adding flit 10610 as NACK at time 262
Reenqueueing errored packet 7912 at time 263
Reenqueueing errored packet 7522 at time 263
Reenqueueing errored packet 5972 at time 263
Reenqueueing errored packet 5872 at time 263
Additional hops: 3575
Adding flit 7441 as NACK at time 263
Additional hops: 3587
Adding flit 4039 as NACK at time 263
Additional hops: 3593
Adding flit 9272 as NACK at time 263
Additional hops: 3602
Adding flit 5275 as NACK at time 264
Reenqueueing errored packet 9287 at time 265
Reenqueueing errored packet 8362 at time 265
Additional hops: 3611
Adding flit 5108 as NACK at time 265
Reenqueueing errored packet 3900 at time 266
Additional hops: 3618
Adding flit 9362 as NACK at time 266
Additional hops: 3627
Adding flit 6549 as NACK at time 266
Additional hops: 3635
Adding flit 6506 as NACK at time 267
Additional hops: 3639
Adding flit 9659 as NACK at time 268
Additional hops: 3641
Adding flit 13186 as NACK at time 268
Additional hops: 3647
Adding flit 6949 as NACK at time 268
Reenqueueing errored packet 10610 at time 269
Reenqueueing errored packet 9336 at time 269
Additional hops: 3650
Adding flit 13270 as NACK at time 269
Additional hops: 3657
Adding flit 7541 as NACK at time 269
Additional hops: 3667
Adding flit 7402 as NACK at time 269
Reenqueueing errored packet 9541 at time 270
Reenqueueing errored packet 6025 at time 270
Additional hops: 3674
Adding flit 9442 as NACK at time 271
Additional hops: 3694
Adding flit 724 as NACK at time 271
Reenqueueing errored packet 3744 at time 272
Additional hops: 3701
Adding flit 10597 as NACK at time 272
Reenqueueing errored packet 13186 at time 273
Reenqueueing errored packet 8561 at time 273
Reenqueueing errored packet 8503 at time 273
Reenqueueing errored packet 5271 at time 273
Additional hops: 3709
Adding flit 8253 as NACK at time 273
Additional hops: 3712
Adding flit 9832 as NACK at time 273
Additional hops: 3722
Adding flit 4047 as NACK at time 273
Additional hops: 3732
Adding flit 5606 as NACK at time 273
Reenqueueing errored packet 10308 at time 274
Reenqueueing errored packet 7237 at time 274
Additional hops: 3739
Adding flit 5956 as NACK at time 274
Reenqueueing errored packet 4491 at time 275
Reenqueueing errored packet 4988 at time 275
Additional hops: 3750
Adding flit 4338 as NACK at time 275
Reenqueueing errored packet 13270 at time 276
Reenqueueing errored packet 9272 at time 276
Additional hops: 3760
Adding flit 4514 as NACK at time 276
Reenqueueing errored packet 9659 at time 277
Additional hops: 3768
Adding flit 9650 as NACK at time 277
Additional hops: 3773
Adding flit 12314 as NACK at time 277
Additional hops: 3781
Adding flit 9408 as NACK at time 277
Additional hops: 3788
Adding flit 5619 as NACK at time 277
Additional hops: 3795
Adding flit 7625 as NACK at time 278
Additional hops: 3800
Adding flit 8138 as NACK at time 278
Reenqueueing errored packet 4197 at time 279
Additional hops: 3802
Adding flit 13899 as NACK at time 279
Reenqueueing errored packet 9832 at time 280
Reenqueueing errored packet 7441 at time 280
Additional hops: 3807
Adding flit 8822 as NACK at time 280
Additional hops: 3817
Adding flit 6104 as NACK at time 280
Reenqueueing errored packet 6949 at time 281
Reenqueueing errored packet 9362 at time 281
Reenqueueing errored packet 6034 at time 281
Additional hops: 3819
Adding flit 11946 as NACK at time 281
Additional hops: 3827
Adding flit 5677 as NACK at time 282
Additional hops: 3835
Adding flit 4725 as NACK at time 282
Additional hops: 3840
Adding flit 13285 as NACK at time 282
Reenqueueing errored packet 5275 at time 283
Additional hops: 3845
Adding flit 12469 as NACK at time 283
Reenqueueing errored packet 13899 at time 284
Reenqueueing errored packet 7541 at time 284
Reenqueueing errored packet 6506 at time 284
Reenqueueing errored packet 5108 at time 284
Additional hops: 3852
Adding flit 6146 as NACK at time 284
Additional hops: 3857
Adding flit 7116 as NACK at time 284
Reenqueueing errored packet 6549 at time 285
Reenqueueing errored packet 3736 at time 285
Additional hops: 3865
Adding flit 11640 as NACK at time 285
Reenqueueing errored packet 11946 at time 286
Reenqueueing errored packet 9442 at time 286
Additional hops: 3871
Adding flit 10739 as NACK at time 286
Additional hops: 3876
Adding flit 10442 as NACK at time 286
Reenqueueing errored packet 10597 at time 287
Reenqueueing errored packet 12314 at time 288
Reenqueueing errored packet 4039 at time 288
Additional hops: 3878
Adding flit 14257 as NACK at time 288
Additional hops: 3881
Adding flit 11862 as NACK at time 288
Additional hops: 3890
Adding flit 7290 as NACK at time 288
Reenqueueing errored packet 8138 at time 289
Reenqueueing errored packet 5956 at time 289
Additional hops: 3894
Adding flit 14151 as NACK at time 289
Additional hops: 3899
Adding flit 11300 as NACK at time 289
Reenqueueing errored packet 8253 at time 290
Reenqueueing errored packet 7402 at time 290
Reenqueueing errored packet 8822 at time 291
Additional hops: 3907
Adding flit 5933 as NACK at time 291
Additional hops: 3915
Adding flit 5903 as NACK at time 291
Additional hops: 3922
Adding flit 7733 as NACK at time 291
Reenqueueing errored packet 5619 at time 292
Additional hops: 3928
Adding flit 9447 as NACK at time 292
Additional hops: 3933
Adding flit 11911 as NACK at time 292
Additional hops: 3937
Adding flit 9765 as NACK at time 292
Additional hops: 3944
Adding flit 9779 as NACK at time 292
Reenqueueing errored packet 14257 at time 293
Reenqueueing errored packet 13285 at time 293
Additional hops: 3951
Adding flit 8703 as NACK at time 293
Additional hops: 3962
Adding flit 5322 as NACK at time 293
Additional hops: 3982
Adding flit 988 as NACK at time 293
Reenqueueing errored packet 12469 at time 294
Reenqueueing errored packet 9408 at time 294
Reenqueueing errored packet 9650 at time 294
Reenqueueing errored packet 5606 at time 294
Reenqueueing errored packet 4047 at time 294
Additional hops: 3987
Adding flit 11419 as NACK at time 294
Reenqueueing errored packet 11862 at time 295
Reenqueueing errored packet 40 at time 295
Additional hops: 3997
Adding flit 4417 as NACK at time 295
Additional hops: 4000
Adding flit 14225 as NACK at time 295
Additional hops: 4008
Adding flit 6350 as NACK at time 296
Reenqueueing errored packet 10442 at time 297
Reenqueueing errored packet 4514 at time 297
Additional hops: 4016
Adding flit 10667 as NACK at time 297
Additional hops: 4024
Adding flit 7767 as NACK at time 297
Reenqueueing errored packet 14151 at time 298
Reenqueueing errored packet 4338 at time 298
Reenqueueing errored packet 1337 at time 298
Additional hops: 4031
Adding flit 6463 as NACK at time 298
Additional hops: 4035
Adding flit 9739 as NACK at time 298
Additional hops: 4043
Adding flit 6636 as NACK at time 298
Additional hops: 4047
Adding flit 9397 as NACK at time 298
Additional hops: 4052
Adding flit 12157 as NACK at time 298
Reenqueueing errored packet 10739 at time 299
Reenqueueing errored packet 6146 at time 299
Reenqueueing errored packet 4725 at time 299
Additional hops: 4057
Adding flit 8206 as NACK at time 299
Reenqueueing errored packet 11300 at time 300
Reenqueueing errored packet 9765 at time 301
Reenqueueing errored packet 6104 at time 301
Additional hops: 4063
Adding flit 6659 as NACK at time 301
Additional hops: 4069
Adding flit 12172 as NACK at time 301
Additional hops: 4073
Adding flit 13355 as NACK at time 301
Additional hops: 4081
Adding flit 9316 as NACK at time 301
Additional hops: 4083
Adding flit 15025 as NACK at time 301
Additional hops: 4089
Adding flit 10786 as NACK at time 301
Reenqueueing errored packet 14225 at time 302
Reenqueueing errored packet 11640 at time 302
Additional hops: 4097
Adding flit 7604 as NACK at time 302
Additional hops: 4103
Adding flit 9453 as NACK at time 302
Additional hops: 4109
Adding flit 8143 as NACK at time 302
Additional hops: 4119
Adding flit 5180 as NACK at time 302
Additional hops: 4122
Adding flit 8676 as NACK at time 302
Additional hops: 4131
Adding flit 8688 as NACK at time 302
Reenqueueing errored packet 11911 at time 303
Additional hops: 4147
Adding flit 4358 as NACK at time 303
Additional hops: 4155
Adding flit 6538 as NACK at time 303
Additional hops: 4161
Adding flit 7141 as NACK at time 304
Additional hops: 4168
Adding flit 10512 as NACK at time 304
Additional hops: 4174
Adding flit 14299 as NACK at time 304
Reenqueueing errored packet 11419 at time 305
Reenqueueing errored packet 9447 at time 305
Reenqueueing errored packet 15025 at time 306
Reenqueueing errored packet 7733 at time 306
Additional hops: 4181
Adding flit 9796 as NACK at time 306
Additional hops: 4195
Adding flit 7453 as NACK at time 306
Additional hops: 4201
Adding flit 8116 as NACK at time 306
Additional hops: 4209
Adding flit 4405 as NACK at time 306
Reenqueueing errored packet 9397 at time 307
Reenqueueing errored packet 9739 at time 307
Reenqueueing errored packet 9779 at time 307
Reenqueueing errored packet 7290 at time 307
Additional hops: 4217
Adding flit 6660 as NACK at time 307
Additional hops: 4221
Adding flit 12079 as NACK at time 307
Additional hops: 4227
Adding flit 6485 as NACK at time 307
Additional hops: 4235
Adding flit 7315 as NACK at time 307
Additional hops: 4237
Adding flit 15370 as NACK at time 307
Additional hops: 4241
Adding flit 10871 as NACK at time 307
Reenqueueing errored packet 8703 at time 308
Reenqueueing errored packet 5903 at time 308
Reenqueueing errored packet 5933 at time 308
Additional hops: 4247
Adding flit 7017 as NACK at time 308
Reenqueueing errored packet 8676 at time 309
Reenqueueing errored packet 12157 at time 309
Additional hops: 4252
Adding flit 8862 as NACK at time 309
Additional hops: 4258
Adding flit 13701 as NACK at time 309
Additional hops: 4270
Adding flit 5065 as NACK at time 309
Additional hops: 4274
Adding flit 14858 as NACK at time 309
Reenqueueing errored packet 13355 at time 310
Reenqueueing errored packet 8206 at time 310
Additional hops: 4282
Adding flit 6563 as NACK at time 310
Additional hops: 4291
Adding flit 10328 as NACK at time 310
Additional hops: 4307
Adding flit 7902 as NACK at time 310
Additional hops: 4317
Adding flit 5967 as NACK at time 311
Additional hops: 4326
Adding flit 8716 as NACK at time 311
Additional hops: 4332
Adding flit 11941 as NACK at time 311
Reenqueueing errored packet 15370 at time 312
Reenqueueing errored packet 724 at time 312
Additional hops: 4337
Adding flit 10908 as NACK at time 312
Reenqueueing errored packet 6463 at time 313
Reenqueueing errored packet 6350 at time 313
Additional hops: 4340
Adding flit 14906 as NACK at time 313
Additional hops: 4346
Adding flit 10696 as NACK at time 313
Additional hops: 4353
Adding flit 10993 as NACK at time 313
Reenqueueing errored packet 10786 at time 314
Reenqueueing errored packet 12172 at time 314
Reenqueueing errored packet 6659 at time 314
Reenqueueing errored packet 7767 at time 314
Reenqueueing errored packet 10667 at time 314
Additional hops: 4362
Adding flit 7168 as NACK at time 314
Reenqueueing errored packet 8143 at time 315
Reenqueueing errored packet 9453 at time 315
Reenqueueing errored packet 6636 at time 315
Additional hops: 4373
Adding flit 6705 as NACK at time 315
Additional hops: 4376
Adding flit 15543 as NACK at time 315
Additional hops: 4382
Adding flit 10430 as NACK at time 315
Reenqueueing errored packet 10871 at time 316
Reenqueueing errored packet 12079 at time 316
Reenqueueing errored packet 4417 at time 316
Reenqueueing errored packet 5322 at time 316
Additional hops: 4392
Adding flit 7640 as NACK at time 316
Additional hops: 4399
Adding flit 9446 as NACK at time 316
Additional hops: 4403
Adding flit 13446 as NACK at time 316
Additional hops: 4409
Adding flit 11680 as NACK at time 316
Additional hops: 4410
Adding flit 15993 as NACK at time 316
Reenqueueing errored packet 14299 at time 317
Reenqueueing errored packet 7141 at time 317
Reenqueueing errored packet 14858 at time 318
Reenqueueing errored packet 9316 at time 318
Additional hops: 4418
Adding flit 10479 as NACK at time 318
Reenqueueing errored packet 15993 at time 319
Reenqueueing errored packet 8116 at time 319
Reenqueueing errored packet 10512 at time 319
Reenqueueing errored packet 7604 at time 319
Reenqueueing errored packet 14906 at time 320
Reenqueueing errored packet 8862 at time 320
Reenqueueing errored packet 6485 at time 320
Reenqueueing errored packet 6538 at time 320
Additional hops: 4426
Adding flit 13775 as NACK at time 320
Additional hops: 4429
Adding flit 13377 as NACK at time 320
Reenqueueing errored packet 7017 at time 321
Reenqueueing errored packet 9796 at time 321
Reenqueueing errored packet 8688 at time 321
Additional hops: 4437
Adding flit 7942 as NACK at time 321
Additional hops: 4446
Adding flit 5099 as NACK at time 321
Reenqueueing errored packet 15543 at time 322
Reenqueueing errored packet 13701 at time 322
Reenqueueing errored packet 10908 at time 323
Reenqueueing errored packet 4405 at time 323
Reenqueueing errored packet 5180 at time 323
Additional hops: 4451
Adding flit 13940 as NACK at time 323
Additional hops: 4461
Adding flit 13285 as NACK at time 323
Reenqueueing errored packet 11941 at time 324
Reenqueueing errored packet 7315 at time 324
Reenqueueing errored packet 6660 at time 324
Additional hops: 4469
Adding flit 12171 as NACK at time 324
Additional hops: 4481
Adding flit 4390 as NACK at time 324
Additional hops: 4489
Adding flit 5895 as NACK at time 324
Additional hops: 4498
Adding flit 5687 as NACK at time 324
Reenqueueing errored packet 13446 at time 325
Additional hops: 4502
Adding flit 15303 as NACK at time 325
Additional hops: 4507
Adding flit 9017 as NACK at time 325
Additional hops: 4516
Adding flit 10277 as NACK at time 325
Reenqueueing errored packet 10696 at time 326
Additional hops: 4522
Adding flit 6997 as NACK at time 326
Additional hops: 4529
Adding flit 13884 as NACK at time 326
Reenqueueing errored packet 13377 at time 327
Reenqueueing errored packet 6563 at time 327
Additional hops: 4534
Adding flit 15202 as NACK at time 327
Additional hops: 4546
Adding flit 3989 as NACK at time 327
Additional hops: 4552
Adding flit 15111 as NACK at time 327
Reenqueueing errored packet 10430 at time 328
Reenqueueing errored packet 10993 at time 328
Reenqueueing errored packet 11680 at time 329
Reenqueueing errored packet 10328 at time 329
Additional hops: 4558
Adding flit 7638 as NACK at time 329
Additional hops: 4563
Adding flit 9896 as NACK at time 329
Reenqueueing errored packet 8716 at time 330
Additional hops: 4567
Adding flit 9888 as NACK at time 330
Reenqueueing errored packet 9446 at time 331
Additional hops: 4574
Adding flit 8881 as NACK at time 331
Reenqueueing errored packet 5967 at time 332
Additional hops: 4580
Adding flit 9778 as NACK at time 332
Additional hops: 4586
Adding flit 9977 as NACK at time 332
Additional hops: 4591
Adding flit 12211 as NACK at time 332
Additional hops: 4604
Adding flit 4671 as NACK at time 332
Reenqueueing errored packet 7168 at time 333
Additional hops: 4612
Adding flit 6383 as NACK at time 333
Additional hops: 4625
Adding flit 4568 as NACK at time 333
Reenqueueing errored packet 15303 at time 334
Reenqueueing errored packet 13940 at time 334
Reenqueueing errored packet 5065 at time 334
Reenqueueing errored packet 988 at time 334
Additional hops: 4632
Adding flit 10118 as NACK at time 334
Additional hops: 4634
Adding flit 12533 as NACK at time 334
Additional hops: 4644
Adding flit 7410 as NACK at time 334
Additional hops: 4649
Adding flit 9034 as NACK at time 334
Additional hops: 4663
Adding flit 5423 as NACK at time 334
Reenqueueing errored packet 10479 at time 335
Reenqueueing errored packet 7453 at time 335
Reenqueueing errored packet 9017 at time 336
Reenqueueing errored packet 4358 at time 336
Additional hops: 4670
Adding flit 7558 as NACK at time 336
Additional hops: 4673
Adding flit 12278 as NACK at time 336
Additional hops: 4683
Adding flit 6654 as NACK at time 336
Reenqueueing errored packet 13775 at time 337
Reenqueueing errored packet 7640 at time 337
Additional hops: 4693
Adding flit 6678 as NACK at time 337
Reenqueueing errored packet 15202 at time 338
Reenqueueing errored packet 7942 at time 338
Reenqueueing errored packet 6705 at time 338
Additional hops: 4703
Adding flit 8979 as NACK at time 338
Additional hops: 4710
Adding flit 12747 as NACK at time 338
Additional hops: 4714
Adding flit 13698 as NACK at time 338
Reenqueueing errored packet 12533 at time 339
Reenqueueing errored packet 9888 at time 339
Reenqueueing errored packet 6997 at time 339
Additional hops: 4723
Adding flit 8009 as NACK at time 339
Additional hops: 4735
Adding flit 4968 as NACK at time 339
Reenqueueing errored packet 9896 at time 340
Reenqueueing errored packet 15111 at time 340
Reenqueueing errored packet 5099 at time 340
Additional hops: 4740
Adding flit 9994 as NACK at time 340
Additional hops: 4746
Adding flit 6590 as NACK at time 340
Reenqueueing errored packet 13884 at time 341
Reenqueueing errored packet 5895 at time 341
Reenqueueing errored packet 12171 at time 341
Additional hops: 4754
Adding flit 6838 as NACK at time 341
Additional hops: 4761
Adding flit 8427 as NACK at time 341
Reenqueueing errored packet 7638 at time 342
Additional hops: 4768
Adding flit 11762 as NACK at time 342
Additional hops: 4775
Adding flit 9781 as NACK at time 342
Reenqueueing errored packet 12278 at time 343
Reenqueueing errored packet 12211 at time 343
Reenqueueing errored packet 5687 at time 343
Reenqueueing errored packet 7902 at time 343
Additional hops: 4785
Adding flit 8202 as NACK at time 343
Additional hops: 4788
Adding flit 15968 as NACK at time 343
Reenqueueing errored packet 10277 at time 344
Reenqueueing errored packet 13285 at time 344
Additional hops: 4796
Adding flit 8565 as NACK at time 344
Additional hops: 4806
Adding flit 7724 as NACK at time 344
Reenqueueing errored packet 9034 at time 345
Reenqueueing errored packet 9977 at time 345
Reenqueueing errored packet 9778 at time 345
Additional hops: 4815
Adding flit 9794 as NACK at time 345
Additional hops: 4821
Adding flit 10719 as NACK at time 345
Additional hops: 4827
Adding flit 10775 as NACK at time 345
Reenqueueing errored packet 8881 at time 346
Additional hops: 4832
Adding flit 8190 as NACK at time 346
Additional hops: 4839
Adding flit 8288 as NACK at time 346
Additional hops: 4853
Adding flit 3904 as NACK at time 346
Reenqueueing errored packet 13698 at time 347
Additional hops: 4858
Adding flit 15615 as NACK at time 347
Additional hops: 4871
Adding flit 4447 as NACK at time 347
Additional hops: 4879
Adding flit 8603 as NACK at time 347
Additional hops: 4889
Adding flit 8454 as NACK at time 347
Additional hops: 4895
Adding flit 9628 as NACK at time 347
Additional hops: 4900
Adding flit 9807 as NACK at time 347
Additional hops: 4908
Adding flit 12065 as NACK at time 348
Additional hops: 4915
Adding flit 14553 as NACK at time 348
Reenqueueing errored packet 10118 at time 349
Reenqueueing errored packet 4390 at time 349
Additional hops: 4917
Adding flit 17423 as NACK at time 349
Additional hops: 4922
Adding flit 7910 as NACK at time 349
Additional hops: 4928
Adding flit 9569 as NACK at time 349
Reenqueueing errored packet 15968 at time 350
Reenqueueing errored packet 6383 at time 350
Additional hops: 4935
Adding flit 10061 as NACK at time 350
Additional hops: 4936
Adding flit 17648 as NACK at time 350
Reenqueueing errored packet 9994 at time 351
Reenqueueing errored packet 7558 at time 351
Additional hops: 4947
Adding flit 8092 as NACK at time 351
Additional hops: 4951
Adding flit 13099 as NACK at time 351
Additional hops: 4954
Adding flit 17334 as NACK at time 351
Additional hops: 4957
Adding flit 16690 as NACK at time 351
Additional hops: 4963
Adding flit 12367 as NACK at time 351
Reenqueueing errored packet 3989 at time 352
Additional hops: 4974
Adding flit 4650 as NACK at time 352
Additional hops: 4982
Adding flit 7799 as NACK at time 352
Additional hops: 4989
Adding flit 11545 as NACK at time 352
Additional hops: 4993
Adding flit 17197 as NACK at time 352
Additional hops: 5000
Adding flit 12515 as NACK at time 352
Reenqueueing errored packet 17648 at time 353
Reenqueueing errored packet 6590 at time 353
Reenqueueing errored packet 12747 at time 353
Additional hops: 5007
Adding flit 10924 as NACK at time 353
Reenqueueing errored packet 17423 at time 354
Additional hops: 5014
Adding flit 10146 as NACK at time 354
Additional hops: 5017
Adding flit 15616 as NACK at time 354
Additional hops: 5026
Adding flit 10625 as NACK at time 354
Reenqueueing errored packet 7410 at time 355
Reenqueueing errored packet 8427 at time 356
Additional hops: 5034
Adding flit 10879 as NACK at time 356
Reenqueueing errored packet 8190 at time 357
Reenqueueing errored packet 9781 at time 357
Reenqueueing errored packet 6654 at time 357
Additional hops: 5036
Adding flit 16677 as NACK at time 357
Additional hops: 5043
Adding flit 9250 as NACK at time 357
Reenqueueing errored packet 16690 at time 358
Reenqueueing errored packet 17334 at time 358
Reenqueueing errored packet 9807 at time 358
Reenqueueing errored packet 15615 at time 358
Reenqueueing errored packet 10775 at time 358
Reenqueueing errored packet 10719 at time 358
Reenqueueing errored packet 6838 at time 358
Reenqueueing errored packet 8009 at time 358
Reenqueueing errored packet 6678 at time 358
Additional hops: 5047
Adding flit 13002 as NACK at time 358
Additional hops: 5056
Adding flit 7378 as NACK at time 358
Reenqueueing errored packet 8979 at time 359
Reenqueueing errored packet 4671 at time 359
Reenqueueing errored packet 13099 at time 360
Reenqueueing errored packet 7910 at time 360
Reenqueueing errored packet 9628 at time 360
Reenqueueing errored packet 4568 at time 360
Additional hops: 5063
Adding flit 15204 as NACK at time 360
Reenqueueing errored packet 15616 at time 361
Reenqueueing errored packet 17197 at time 361
Reenqueueing errored packet 8288 at time 361
Reenqueueing errored packet 8565 at time 361
Additional hops: 5070
Adding flit 12699 as NACK at time 361
Reenqueueing errored packet 16677 at time 362
Reenqueueing errored packet 9569 at time 362
Additional hops: 5075
Adding flit 13710 as NACK at time 362
Additional hops: 5085
Adding flit 5303 as NACK at time 362
Additional hops: 5088
Adding flit 12061 as NACK at time 362
Additional hops: 5093
Adding flit 13619 as NACK at time 362
Additional hops: 5098
Adding flit 16071 as NACK at time 362
Reenqueueing errored packet 14553 at time 363
Reenqueueing errored packet 5423 at time 363
Additional hops: 5104
Adding flit 15073 as NACK at time 363
Reenqueueing errored packet 12367 at time 364
Reenqueueing errored packet 8603 at time 364
Reenqueueing errored packet 9794 at time 364
Reenqueueing errored packet 8202 at time 364
Reenqueueing errored packet 4968 at time 364
Additional hops: 5109
Adding flit 13634 as NACK at time 364
Additional hops: 5121
Adding flit 3366 as NACK at time 364
Additional hops: 5129
Adding flit 7331 as NACK at time 364
Reenqueueing errored packet 10061 at time 365
Reenqueueing errored packet 12065 at time 365
Reenqueueing errored packet 7724 at time 365
Additional hops: 5131
Adding flit 18322 as NACK at time 365
Additional hops: 5140
Adding flit 7314 as NACK at time 365
Additional hops: 5148
Adding flit 10501 as NACK at time 366
Additional hops: 5155
Adding flit 13205 as NACK at time 366
Reenqueueing errored packet 13002 at time 367
Reenqueueing errored packet 12515 at time 367
Reenqueueing errored packet 11545 at time 367
Additional hops: 5161
Adding flit 10626 as NACK at time 367
Additional hops: 5167
Adding flit 14141 as NACK at time 367
Additional hops: 5176
Adding flit 10769 as NACK at time 367
Additional hops: 5182
Adding flit 8757 as NACK at time 367
Reenqueueing errored packet 10924 at time 368
Reenqueueing errored packet 8454 at time 368
Additional hops: 5186
Adding flit 15689 as NACK at time 368
Additional hops: 5193
Adding flit 13261 as NACK at time 368
Additional hops: 5204
Adding flit 6623 as NACK at time 368
Reenqueueing errored packet 12061 at time 369
Reenqueueing errored packet 10146 at time 369
Reenqueueing errored packet 7799 at time 369
Additional hops: 5209
Adding flit 10080 as NACK at time 369
Additional hops: 5212
Adding flit 14865 as NACK at time 369
Reenqueueing errored packet 18322 at time 370
Additional hops: 5214
Adding flit 15086 as NACK at time 370
Additional hops: 5219
Adding flit 11515 as NACK at time 370
Additional hops: 5224
Adding flit 10177 as NACK at time 371
Additional hops: 5231
Adding flit 9413 as NACK at time 371
Additional hops: 5240
Adding flit 11884 as NACK at time 371
Additional hops: 5247
Adding flit 11482 as NACK at time 371
Reenqueueing errored packet 9250 at time 372
Additional hops: 5253
Adding flit 15517 as NACK at time 372
Additional hops: 5260
Adding flit 9428 as NACK at time 372
Reenqueueing errored packet 16071 at time 373
Reenqueueing errored packet 13619 at time 373
Reenqueueing errored packet 13710 at time 373
[...]
Reenqueueing errored packet 329194 at time 9913
Reenqueueing errored packet 335304 at time 9913
Additional hops: 153807
Adding flit 233697 as NACK at time 9913
Additional hops: 153817
Adding flit 215436 as NACK at time 9913
Additional hops: 153827
Adding flit 224674 as NACK at time 9914
Additional hops: 153836
Adding flit 330649 as NACK at time 9914
Additional hops: 153842
Adding flit 192714 as NACK at time 9914
Reenqueueing errored packet 320305 at time 9915
Reenqueueing errored packet 331059 at time 9915
Reenqueueing errored packet 332261 at time 9916
Additional hops: 153844
Adding flit 280687 as NACK at time 9917
Additional hops: 153848
Adding flit 337768 as NACK at time 9917
Additional hops: 153870
Adding flit 81867 as NACK at time 9917
Additional hops: 153876
Adding flit 180329 as NACK at time 9917
Reenqueueing errored packet 345966 at time 9918
Additional hops: 153882
Adding flit 194227 as NACK at time 9919
Additional hops: 153886
Adding flit 337270 as NACK at time 9919
Additional hops: 153891
Adding flit 336867 as NACK at time 9919
Additional hops: 153895
Adding flit 343843 as NACK at time 9919
Reenqueueing errored packet 351080 at time 9920
Reenqueueing errored packet 283007 at time 9920
Additional hops: 153901
Adding flit 298458 as NACK at time 9920
Additional hops: 153913
Adding flit 216582 as NACK at time 9920
Reenqueueing errored packet 334542 at time 9921
Additional hops: 153921
Adding flit 356888 as NACK at time 9921
Reenqueueing errored packet 280687 at time 9922
Additional hops: 153928
Adding flit 297342 as NACK at time 9922
Additional hops: 153933
Adding flit 352771 as NACK at time 9922
Reenqueueing errored packet 292236 at time 9923
Additional hops: 153945
Adding flit 212458 as NACK at time 9923
Additional hops: 153953
Adding flit 313785 as NACK at time 9923
Additional hops: 153961
Adding flit 330214 as NACK at time 9923
Reenqueueing errored packet 347307 at time 9924
Reenqueueing errored packet 324003 at time 9924
Reenqueueing errored packet 341456 at time 9924
Additional hops: 153966
Adding flit 341785 as NACK at time 9924
Additional hops: 153973
Adding flit 337274 as NACK at time 9924
Additional hops: 153981
Adding flit 323112 as NACK at time 9924
Additional hops: 153988
Adding flit 178092 as NACK at time 9925
Additional hops: 153994
Adding flit 299910 as NACK at time 9925
Additional hops: 154000
Adding flit 332088 as NACK at time 9925
Reenqueueing errored packet 337768 at time 9926
Reenqueueing errored packet 293283 at time 9926
Reenqueueing errored packet 325053 at time 9926
Additional hops: 154006
Adding flit 346817 as NACK at time 9926
Additional hops: 154013
Adding flit 242454 as NACK at time 9926
Additional hops: 154024
Adding flit 183590 as NACK at time 9926
Reenqueueing errored packet 353210 at time 9927
Reenqueueing errored packet 316456 at time 9927
Reenqueueing errored packet 343843 at time 9928
Reenqueueing errored packet 337270 at time 9928
Reenqueueing errored packet 233697 at time 9928
Reenqueueing errored packet 330213 at time 9928
Additional hops: 154029
Adding flit 296464 as NACK at time 9928
Additional hops: 154033
Adding flit 345836 as NACK at time 9928
Additional hops: 154046
Adding flit 175064 as NACK at time 9928
Additional hops: 154054
Adding flit 280834 as NACK at time 9929
Additional hops: 154062
Adding flit 185223 as NACK at time 9929
Additional hops: 154066
Adding flit 304145 as NACK at time 9929
Reenqueueing errored packet 336867 at time 9930
Reenqueueing errored packet 180329 at time 9930
Reenqueueing errored packet 350608 at time 9931
Additional hops: 154070
Adding flit 230846 as NACK at time 9931
Additional hops: 154076
Adding flit 184919 as NACK at time 9932
Additional hops: 154082
Adding flit 247877 as NACK at time 9932
Reenqueueing errored packet 352771 at time 9933
Reenqueueing errored packet 298458 at time 9933
Reenqueueing errored packet 330649 at time 9933
Additional hops: 154086
Adding flit 361403 as NACK at time 9933
Additional hops: 154095
Adding flit 187533 as NACK at time 9933
Reenqueueing errored packet 215436 at time 9934
Additional hops: 154101
Adding flit 333619 as NACK at time 9934
Reenqueueing errored packet 341785 at time 9935
Additional hops: 154109
Adding flit 346381 as NACK at time 9935
Additional hops: 154119
Adding flit 179189 as NACK at time 9935
Additional hops: 154127
Adding flit 304469 as NACK at time 9935
Additional hops: 154136
Adding flit 350310 as NACK at time 9935
Additional hops: 154143
Adding flit 334396 as NACK at time 9936
Additional hops: 154152
Adding flit 284734 as NACK at time 9936
Reenqueueing errored packet 319512 at time 9937
Reenqueueing errored packet 332088 at time 9938
Reenqueueing errored packet 299910 at time 9938
Reenqueueing errored packet 356888 at time 9938
Additional hops: 154160
Adding flit 228150 as NACK at time 9938
Additional hops: 154164
Adding flit 345744 as NACK at time 9938
Reenqueueing errored packet 296464 at time 9939
Reenqueueing errored packet 346817 at time 9939
Reenqueueing errored packet 337274 at time 9939
Additional hops: 154171
Adding flit 294124 as NACK at time 9939
Additional hops: 154182
Adding flit 332853 as NACK at time 9939
Additional hops: 154191
Adding flit 224571 as NACK at time 9940
Additional hops: 154197
Adding flit 335231 as NACK at time 9940
Additional hops: 154209
Adding flit 285301 as NACK at time 9940
Reenqueueing errored packet 323112 at time 9941
Additional hops: 154215
Adding flit 341027 as NACK at time 9941
Additional hops: 154217
Adding flit 343349 as NACK at time 9941
Additional hops: 154224
Adding flit 356108 as NACK at time 9941
Reenqueueing errored packet 361403 at time 9942
Additional hops: 154232
Adding flit 293862 as NACK at time 9942
Additional hops: 154238
Adding flit 288281 as NACK at time 9943
Additional hops: 154243
Adding flit 357790 as NACK at time 9943
Uncorrectable 3
Additional hops: 154252
Adding flit 181801 as NACK at time 9944
Additional hops: 154260
Adding flit 185804 as NACK at time 9944
Additional hops: 154267
Adding flit 339322 as NACK at time 9944
Reenqueueing errored packet 216582 at time 9945
Additional hops: 154273
Adding flit 187648 as NACK at time 9945
Additional hops: 154283
Adding flit 216252 as NACK at time 9945
Additional hops: 154292
Adding flit 265116 as NACK at time 9945
Reenqueueing errored packet 343349 at time 9946
Reenqueueing errored packet 280834 at time 9946
Additional hops: 154300
Adding flit 201030 as NACK at time 9946
Additional hops: 154305
Adding flit 335121 as NACK at time 9946
Additional hops: 154311
Adding flit 303495 as NACK at time 9946
Reenqueueing errored packet 333619 at time 9947
Additional hops: 154318
Adding flit 294505 as NACK at time 9947
Additional hops: 154321
Adding flit 325674 as NACK at time 9947
Additional hops: 154326
Adding flit 357981 as NACK at time 9947
Additional hops: 154330
Adding flit 343414 as NACK at time 9947
Additional hops: 154335
Adding flit 337489 as NACK at time 9948
Additional hops: 154337
Adding flit 347578 as NACK at time 9948
Additional hops: 154345
Adding flit 338741 as NACK at time 9949
Additional hops: 154358
Adding flit 179899 as NACK at time 9949
Additional hops: 154366
Adding flit 247852 as NACK at time 9949
Additional hops: 154371
Adding flit 314826 as NACK at time 9950
Additional hops: 154377
Adding flit 357227 as NACK at time 9950
Additional hops: 154382
Adding flit 253652 as NACK at time 9950
Reenqueueing errored packet 334396 at time 9951
Additional hops: 154388
Adding flit 346506 as NACK at time 9951
Reenqueueing errored packet 304469 at time 9952
Reenqueueing errored packet 346381 at time 9952
Additional hops: 154396
Adding flit 232211 as NACK at time 9952
Additional hops: 154403
Adding flit 302602 as NACK at time 9952
Additional hops: 154409
Adding flit 295522 as NACK at time 9952
Additional hops: 154416
Adding flit 233686 as NACK at time 9952
Additional hops: 154424
Adding flit 290335 as NACK at time 9952
Additional hops: 154429
Adding flit 324518 as NACK at time 9952
Additional hops: 154431
Adding flit 348674 as NACK at time 9952
Additional hops: 154441
Adding flit 309573 as NACK at time 9952
Reenqueueing errored packet 347578 at time 9953
Reenqueueing errored packet 335231 at time 9953
Additional hops: 154446
Adding flit 194008 as NACK at time 9953
Additional hops: 154458
Adding flit 217906 as NACK at time 9953
Additional hops: 154465
Adding flit 354114 as NACK at time 9953
Additional hops: 154471
Adding flit 356655 as NACK at time 9953
Additional hops: 154479
Adding flit 230835 as NACK at time 9953
Reenqueueing errored packet 325674 at time 9954
Reenqueueing errored packet 357790 at time 9954
Reenqueueing errored packet 341027 at time 9954
Reenqueueing errored packet 350310 at time 9954
Additional hops: 154492
Adding flit 173119 as NACK at time 9954
Additional hops: 154499
Adding flit 334135 as NACK at time 9954
Additional hops: 154506
Adding flit 341689 as NACK at time 9954
Reenqueueing errored packet 284734 at time 9955
Reenqueueing errored packet 175064 at time 9955
Additional hops: 154514
Adding flit 178862 as NACK at time 9955
Additional hops: 154526
Adding flit 298852 as NACK at time 9955
Additional hops: 154532
Adding flit 185503 as NACK at time 9955
Reenqueueing errored packet 343414 at time 9956
Reenqueueing errored packet 356108 at time 9956
Additional hops: 154537
Adding flit 354067 as NACK at time 9956
Additional hops: 154543
Adding flit 297525 as NACK at time 9956
Additional hops: 154548
Adding flit 322227 as NACK at time 9956
Reenqueueing errored packet 348674 at time 9957
Reenqueueing errored packet 335121 at time 9957
Additional hops: 154557
Adding flit 181640 as NACK at time 9957
Additional hops: 154565
Adding flit 293151 as NACK at time 9957
Additional hops: 154573
Adding flit 224377 as NACK at time 9957
Additional hops: 154578
Adding flit 349932 as NACK at time 9957
Reenqueueing errored packet 357981 at time 9958
Reenqueueing errored packet 337489 at time 9959
Reenqueueing errored packet 339322 at time 9959
Additional hops: 154584
Adding flit 309919 as NACK at time 9959
Additional hops: 154586
Adding flit 354639 as NACK at time 9959
Additional hops: 154592
Adding flit 245168 as NACK at time 9960
Additional hops: 154600
Adding flit 339104 as NACK at time 9960
Reenqueueing errored packet 185804 at time 9961
Additional hops: 154611
Adding flit 177570 as NACK at time 9961
Reenqueueing errored packet 294505 at time 9962
Reenqueueing errored packet 332853 at time 9962
Additional hops: 154620
Adding flit 338263 as NACK at time 9962
Additional hops: 154630
Adding flit 286235 as NACK at time 9962
Additional hops: 154638
Adding flit 321373 as NACK at time 9962
Reenqueueing errored packet 357227 at time 9963
Reenqueueing errored packet 201030 at time 9963
Additional hops: 154642
Adding flit 355511 as NACK at time 9963
Additional hops: 154649
Adding flit 336612 as NACK at time 9963
Additional hops: 154654
Adding flit 300901 as NACK at time 9963
Additional hops: 154657
Adding flit 354538 as NACK at time 9963
Additional hops: 154663
Adding flit 248359 as NACK at time 9963
Reenqueueing errored packet 354639 at time 9964
Reenqueueing errored packet 194008 at time 9964
Reenqueueing errored packet 265116 at time 9964
Additional hops: 154673
Adding flit 176204 as NACK at time 9964
Reenqueueing errored packet 295522 at time 9965
Reenqueueing errored packet 285301 at time 9965
Additional hops: 154678
Adding flit 312350 as NACK at time 9965
Reenqueueing errored packet 356655 at time 9966
Reenqueueing errored packet 338741 at time 9966
Reenqueueing errored packet 216252 at time 9966
Additional hops: 154685
Adding flit 345303 as NACK at time 9966
Additional hops: 154692
Adding flit 295035 as NACK at time 9966
Reenqueueing errored packet 322227 at time 9967
Reenqueueing errored packet 354067 at time 9967
Reenqueueing errored packet 233686 at time 9967
Additional hops: 154696
Adding flit 335095 as NACK at time 9967
Additional hops: 154703
Adding flit 336625 as NACK at time 9967
Additional hops: 154716
Adding flit 175570 as NACK at time 9967
Reenqueueing errored packet 349932 at time 9968
Reenqueueing errored packet 354114 at time 9968
Additional hops: 154722
Adding flit 340362 as NACK at time 9968
Reenqueueing errored packet 297525 at time 9969
Reenqueueing errored packet 341689 at time 9969
Reenqueueing errored packet 334135 at time 9969
Reenqueueing errored packet 290335 at time 9969
Additional hops: 154731
Adding flit 316063 as NACK at time 9969
Additional hops: 154736
Adding flit 335576 as NACK at time 9969
Additional hops: 154742
Adding flit 349507 as NACK at time 9969
Reenqueueing errored packet 354538 at time 9970
Additional hops: 154747
Adding flit 224091 as NACK at time 9970
Additional hops: 154754
Adding flit 314645 as NACK at time 9970
Additional hops: 154760
Adding flit 296675 as NACK at time 9971
Additional hops: 154774
Adding flit 217832 as NACK at time 9971
Reenqueueing errored packet 355511 at time 9972
Reenqueueing errored packet 309919 at time 9972
Reenqueueing errored packet 178862 at time 9972
Additional hops: 154778
Adding flit 349821 as NACK at time 9972
Additional hops: 154783
Adding flit 215228 as NACK at time 9972
Reenqueueing errored packet 245168 at time 9973
Reenqueueing errored packet 309573 at time 9973
Additional hops: 154786
Adding flit 333360 as NACK at time 9973
Reenqueueing errored packet 300901 at time 9974
Reenqueueing errored packet 293151 at time 9974
Additional hops: 154792
Adding flit 292803 as NACK at time 9974
Additional hops: 154796
Adding flit 354907 as NACK at time 9974
Additional hops: 154806
Adding flit 349496 as NACK at time 9974
Additional hops: 154814
Adding flit 198025 as NACK at time 9975
Reenqueueing errored packet 335095 at time 9976
Reenqueueing errored packet 181640 at time 9976
Reenqueueing errored packet 339104 at time 9977
Additional hops: 154820
Adding flit 298371 as NACK at time 9977
Additional hops: 154827
Adding flit 345206 as NACK at time 9977
Reenqueueing errored packet 336612 at time 9978
Additional hops: 154833
Adding flit 237468 as NACK at time 9978
Additional hops: 154839
Adding flit 349451 as NACK at time 9978
Additional hops: 154843
Adding flit 228336 as NACK at time 9978
Reenqueueing errored packet 321373 at time 9979
Additional hops: 154850
Adding flit 241604 as NACK at time 9979
Additional hops: 154856
Adding flit 299032 as NACK at time 9979
Reenqueueing errored packet 333360 at time 9980
Reenqueueing errored packet 335576 at time 9980
Reenqueueing errored packet 298852 at time 9980
Additional hops: 154861
Adding flit 339004 as NACK at time 9980
Reenqueueing errored packet 349821 at time 9981
Reenqueueing errored packet 224091 at time 9981
Reenqueueing errored packet 340362 at time 9981
Reenqueueing errored packet 295035 at time 9981
Reenqueueing errored packet 345303 at time 9981
Reenqueueing errored packet 338263 at time 9981
Additional hops: 154867
Adding flit 299306 as NACK at time 9981
Additional hops: 154878
Adding flit 274289 as NACK at time 9981
Reenqueueing errored packet 349507 at time 9982
Reenqueueing errored packet 336625 at time 9982
Additional hops: 154885
Adding flit 343279 as NACK at time 9982
Additional hops: 154893
Adding flit 243835 as NACK at time 9982
Additional hops: 154897
Adding flit 355069 as NACK at time 9982
Additional hops: 154905
Adding flit 320622 as NACK at time 9982
Additional hops: 154912
Adding flit 229745 as NACK at time 9982
Reenqueueing errored packet 354907 at time 9983
Reenqueueing errored packet 215228 at time 9983
Additional hops: 154922
Adding flit 343463 as NACK at time 9983
Additional hops: 154933
Adding flit 290446 as NACK at time 9983
Reenqueueing errored packet 296675 at time 9984
Additional hops: 154941
Adding flit 235183 as NACK at time 9984
Additional hops: 154947
Adding flit 214719 as NACK at time 9984
Additional hops: 154957
Adding flit 286951 as NACK at time 9984
Reenqueueing errored packet 314645 at time 9985
Additional hops: 154970
Adding flit 173469 as NACK at time 9985
Additional hops: 154976
Adding flit 339222 as NACK at time 9985
Additional hops: 154988
Adding flit 287783 as NACK at time 9985
Additional hops: 154998
Adding flit 253252 as NACK at time 9986
Reenqueueing errored packet 292803 at time 9987
Additional hops: 155006
Adding flit 225694 as NACK at time 9987
Additional hops: 155009
Adding flit 351296 as NACK at time 9987
Additional hops: 155018
Adding flit 180600 as NACK at time 9987
Reenqueueing errored packet 316063 at time 9988
Additional hops: 155026
Adding flit 344762 as NACK at time 9988
Additional hops: 155035
Adding flit 327566 as NACK at time 9988
Additional hops: 155042
Adding flit 340332 as NACK at time 9988
Additional hops: 155049
Adding flit 297801 as NACK at time 9988
Additional hops: 155067
Adding flit 290856 as NACK at time 9988
Additional hops: 155076
Adding flit 339596 as NACK at time 9988
Reenqueueing errored packet 298371 at time 9990
Additional hops: 155086
Adding flit 322298 as NACK at time 9990
Additional hops: 155092
Adding flit 359029 as NACK at time 9990
Additional hops: 155096
Adding flit 351772 as NACK at time 9990
Additional hops: 155100
Adding flit 326599 as NACK at time 9990
Reenqueueing errored packet 355069 at time 9991
Reenqueueing errored packet 339004 at time 9991
Reenqueueing errored packet 349451 at time 9991
Reenqueueing errored packet 237468 at time 9991
Reenqueueing errored packet 299032 at time 9992
Reenqueueing errored packet 345206 at time 9992
Additional hops: 155130
Adding flit 287573 as NACK at time 9992
Additional hops: 155137
Adding flit 342848 as NACK at time 9992
Additional hops: 155144
Adding flit 339427 as NACK at time 9993
Reenqueueing errored packet 351296 at time 9994
Reenqueueing errored packet 299306 at time 9994
Reenqueueing errored packet 241604 at time 9994
Reenqueueing errored packet 175570 at time 9994
Additional hops: 155149
Adding flit 343697 as NACK at time 9994
Additional hops: 155163
Adding flit 217686 as NACK at time 9994
Additional hops: 155169
Adding flit 299287 as NACK at time 9994
Reenqueueing errored packet 349496 at time 9995
Additional hops: 155179
Adding flit 279495 as NACK at time 9995
Additional hops: 155183
Adding flit 350251 as NACK at time 9995
Additional hops: 155190
Adding flit 312034 as NACK at time 9996
Additional hops: 155195
Adding flit 335987 as NACK at time 9996
Additional hops: 155199
Adding flit 228659 as NACK at time 9996
Reenqueueing errored packet 214719 at time 9997
Reenqueueing errored packet 229745 at time 9997
Reenqueueing errored packet 343279 at time 9997
Reenqueueing errored packet 339222 at time 9998
Additional hops: 155206
Adding flit 345230 as NACK at time 9998
Reenqueueing errored packet 351772 at time 9999
Reenqueueing errored packet 320622 at time 9999
Reenqueueing errored packet 243835 at time 9999
Additional hops: 155212
Adding flit 184779 as NACK at time 9999
Additional hops: 155221
Adding flit 186715 as NACK at time 9999
Additional hops: 155227
Adding flit 338065 as NACK at time 9999
Class 0:
Packet latency average = 1572.09
	minimum = 5
	maximum = 9458
Network latency average = 1375.32
	minimum = 5
	maximum = 6567
Slowest packet = 139
Flit latency average = 1375.32
	minimum = 5
	maximum = 6567
Slowest flit = 167046
Fragmentation average = 0
	minimum = 0
	maximum = 0
Injected packet rate average = 0.617164
	minimum = 0.4314 (at node 6)
	maximum = 0.8593 (at node 3)
Accepted packet rate average = 0.50035
	minimum = 0.4761 (at node 21)
	maximum = 0.5165 (at node 56)
Injected flit rate average = 0.617164
	minimum = 0.4314 (at node 6)
	maximum = 0.8593 (at node 3)
Accepted flit rate average= 0.50035
	minimum = 0.4761 (at node 21)
	maximum = 0.5165 (at node 56)
Injected packet length average = 1
Accepted packet length average = 1
Total in-flight flits = 79932 (0 measured)
latency change    = 1
throughput change = 1
Average latency for class 0 exceeded 500 cycles. Aborting simulation.
Too many sample periods needed to converge
Simulation unstable, ending ...
Total run time 100.465
