BEGIN Configuration File: examples/ecc_mesh88_config_0_0.050_packet_2
// $Id$

// Copyright (c) 2007-2015, Trustees of The Leland Stanford Junior University
// All rights reserved.
//
// Redistribution and use in source and binary forms, with or without
// modification, are permitted provided that the following conditions are met:
//
// Redistributions of source code must retain the above copyright notice, this
// list of conditions and the following disclaimer.
// Redistributions in binary form must reproduce the above copyright notice,
// this list of conditions and the following disclaimer in the documentation
// and/or other materials provided with the distribution.
//
// THIS SOFTWARE IS PROVIDED BY THE COPYRIGHT HOLDERS AND CONTRIBUTORS "AS IS"
// AND ANY EXPRESS OR IMPLIED WARRANTIES, INCLUDING, BUT NOT LIMITED TO, THE
// IMPLIED WARRANTIES OF MERCHANTABILITY AND FITNESS FOR A PARTICULAR PURPOSE
// ARE DISCLAIMED. IN NO EVENT SHALL THE COPYRIGHT OWNER OR CONTRIBUTORS BE
// LIABLE FOR ANY DIRECT, INDIRECT, INCIDENTAL, SPECIAL, EXEMPLARY, OR
// CONSEQUENTIAL DAMAGES (INCLUDING, BUT NOT LIMITED TO, PROCUREMENT OF
// SUBSTITUTE GOODS OR SERVICES; LOSS OF USE, DATA, OR PROFITS; OR BUSINESS
// INTERRUPTION) HOWEVER CAUSED AND ON ANY THEORY OF LIABILITY, WHETHER IN
// CONTRACT, STRICT LIABILITY, OR TORT (INCLUDING NEGLIGENCE OR OTHERWISE)
// ARISING IN ANY WAY OUT OF THE USE OF THIS SOFTWARE, EVEN IF ADVISED OF THE
// POSSIBILITY OF SUCH DAMAGE.

// Dragonfly
//




vc_buf_size = 256;


wait_for_tail_credit = 0;

//
// Router architecture
//
vc_allocator = separable_input_first; 
sw_allocator = separable_input_first;
alloc_iters  = 1;

credit_delay   = 2;
routing_delay  = 0;
vc_alloc_delay = 1;
sw_alloc_delay = 1;
st_final_delay = 1;

input_speedup     = 1;
output_speedup    = 1;
internal_speedup  = 2.0;


warmup_periods = 3;
sim_count          = 1;

sample_period  = 10000;  


routing_function = dor;
num_vcs     = 2;

priority = none;
traffic       = uniform; 

injection_rate = 0.05;
packet_size = 1;
injection_rate_uses_flits=1;

topology = mesh;

k  = 8;
n  = 2;

fer = 2;
ecc = link;
correctable = 0;

watch_out=-;
watch_file = watch.txt;

ecc = packet;

stats_out = examples/ecc_mesh88_config_0_0.050_packet_2.m;

END Configuration File: examples/ecc_mesh88_config_0_0.050_packet_2
Additional hops: 4
Adding flit 6 as NACK at time 16
Additional hops: 9
Adding flit 2 as NACK at time 18
Additional hops: 12
Adding flit 35 as NACK at time 21
Reenqueueing errored packet 6 at time 25
Additional hops: 18
Adding flit 20 as NACK at time 25
Reenqueueing errored packet 35 at time 28
Reenqueueing errored packet 2 at time 29
Additional hops: 21
Adding flit 58 as NACK at time 30
Additional hops: 27
Adding flit 47 as NACK at time 35
Reenqueueing errored packet 58 at time 37
Reenqueueing errored packet 20 at time 38
Additional hops: 33
Adding flit 67 as NACK at time 43
Reenqueueing errored packet 47 at time 48
Additional hops: 41
Adding flit 64 as NACK at time 48
Reenqueueing errored packet 67 at time 56
Additional hops: 50
Adding flit 99 as NACK at time 62
Reenqueueing errored packet 64 at time 65
Additional hops: 62
Adding flit 47 as NACK at time 68
Additional hops: 66
Adding flit 187 as NACK at time 76
Additional hops: 73
Adding flit 159 as NACK at time 78
Additional hops: 79
Adding flit 175 as NACK at time 79
Reenqueueing errored packet 99 at time 81
Additional hops: 87
Adding flit 165 as NACK at time 82
Additional hops: 95
Adding flit 169 as NACK at time 84
Reenqueueing errored packet 187 at time 85
Additional hops: 104
Adding flit 167 as NACK at time 86
Reenqueueing errored packet 175 at time 92
Reenqueueing errored packet 159 at time 93
Reenqueueing errored packet 47 at time 93
Additional hops: 108
Adding flit 237 as NACK at time 93
Additional hops: 111
Adding flit 256 as NACK at time 94
Additional hops: 120
Adding flit 205 as NACK at time 96
Additional hops: 129
Adding flit 209 as NACK at time 97
Additional hops: 141
Adding flit 184 as NACK at time 98
Reenqueueing errored packet 165 at time 99
Additional hops: 147
Adding flit 240 as NACK at time 99
Additional hops: 153
Adding flit 239 as NACK at time 99
Reenqueueing errored packet 256 at time 101
Reenqueueing errored packet 169 at time 101
Additional hops: 160
Adding flit 236 as NACK at time 101
Reenqueueing errored packet 237 at time 102
Additional hops: 167
Adding flit 243 as NACK at time 103
Reenqueueing errored packet 167 at time 105
Additional hops: 169
Adding flit 306 as NACK at time 107
Reenqueueing errored packet 306 at time 112
Reenqueueing errored packet 239 at time 112
Reenqueueing errored packet 240 at time 112
Reenqueueing errored packet 205 at time 115
Reenqueueing errored packet 236 at time 116
Reenqueueing errored packet 209 at time 116
Reenqueueing errored packet 243 at time 118
Additional hops: 177
Adding flit 294 as NACK at time 120
Reenqueueing errored packet 184 at time 123
Additional hops: 179
Adding flit 380 as NACK at time 130
Additional hops: 188
Adding flit 315 as NACK at time 130
Reenqueueing errored packet 380 at time 135
Reenqueueing errored packet 294 at time 137
Additional hops: 196
Adding flit 376 as NACK at time 146
Reenqueueing errored packet 315 at time 149
Additional hops: 202
Adding flit 418 as NACK at time 154
Additional hops: 209
Adding flit 410 as NACK at time 154
Additional hops: 218
Adding flit 388 as NACK at time 156
Reenqueueing errored packet 376 at time 163
Reenqueueing errored packet 418 at time 167
Additional hops: 226
Adding flit 445 as NACK at time 168
Reenqueueing errored packet 410 at time 169
Reenqueueing errored packet 388 at time 175
Reenqueueing errored packet 445 at time 185
Additional hops: 231
Adding flit 566 as NACK at time 194
Additional hops: 238
Adding flit 552 as NACK at time 195
Additional hops: 244
Adding flit 568 as NACK at time 197
Additional hops: 257
Adding flit 510 as NACK at time 200
Additional hops: 263
Adding flit 581 as NACK at time 202
Reenqueueing errored packet 566 at time 205
Additional hops: 270
Adding flit 586 as NACK at time 208
Reenqueueing errored packet 568 at time 210
Reenqueueing errored packet 552 at time 210
Additional hops: 272
Adding flit 649 as NACK at time 211
Additional hops: 279
Adding flit 602 as NACK at time 213
Reenqueueing errored packet 581 at time 215
Reenqueueing errored packet 649 at time 216
Reenqueueing errored packet 586 at time 223
Reenqueueing errored packet 510 at time 227
Reenqueueing errored packet 602 at time 228
Additional hops: 281
Adding flit 708 as NACK at time 232
Reenqueueing errored packet 708 at time 237
Additional hops: 289
Adding flit 679 as NACK at time 239
Additional hops: 292
Adding flit 723 as NACK at time 242
Additional hops: 305
Adding flit 654 as NACK at time 244
Reenqueueing errored packet 723 at time 249
Reenqueueing errored packet 679 at time 256
Additional hops: 312
Adding flit 732 as NACK at time 256
Additional hops: 318
Adding flit 764 as NACK at time 261
Additional hops: 325
Adding flit 753 as NACK at time 261
Additional hops: 329
Adding flit 786 as NACK at time 264
Additional hops: 334
Adding flit 783 as NACK at time 267
Additional hops: 344
Adding flit 738 as NACK at time 267
Additional hops: 353
Adding flit 765 as NACK at time 270
Reenqueueing errored packet 732 at time 271
Reenqueueing errored packet 654 at time 271
Reenqueueing errored packet 786 at time 273
Reenqueueing errored packet 764 at time 274
Additional hops: 359
Adding flit 804 as NACK at time 275
Reenqueueing errored packet 753 at time 276
Additional hops: 366
Adding flit 794 as NACK at time 276
Additional hops: 374
Adding flit 790 as NACK at time 277
Reenqueueing errored packet 783 at time 278
Additional hops: 380
Adding flit 817 as NACK at time 279
Additional hops: 384
Adding flit 852 as NACK at time 284
Reenqueueing errored packet 804 at time 288
Reenqueueing errored packet 738 at time 288
Reenqueueing errored packet 765 at time 289
Additional hops: 394
Adding flit 809 as NACK at time 289
Additional hops: 401
Adding flit 843 as NACK at time 290
Reenqueueing errored packet 794 at time 291
Reenqueueing errored packet 817 at time 292
Reenqueueing errored packet 852 at time 293
Additional hops: 411
Adding flit 825 as NACK at time 293
Additional hops: 416
Adding flit 875 as NACK at time 293
Reenqueueing errored packet 790 at time 294
Additional hops: 421
Adding flit 877 as NACK at time 294
Additional hops: 427
Adding flit 892 as NACK at time 300
Reenqueueing errored packet 875 at time 304
Reenqueueing errored packet 877 at time 305
Reenqueueing errored packet 843 at time 305
Additional hops: 432
Adding flit 921 as NACK at time 305
Reenqueueing errored packet 809 at time 310
Additional hops: 438
Adding flit 928 as NACK at time 311
Reenqueueing errored packet 892 at time 313
Reenqueueing errored packet 825 at time 314
Reenqueueing errored packet 921 at time 316
Reenqueueing errored packet 928 at time 324
Additional hops: 445
Adding flit 981 as NACK at time 331
Additional hops: 451
Adding flit 1003 as NACK at time 334
Additional hops: 457
Adding flit 1009 as NACK at time 336
Additional hops: 466
Adding flit 975 as NACK at time 336
Additional hops: 475
Adding flit 992 as NACK at time 340
Additional hops: 483
Adding flit 1000 as NACK at time 341
Additional hops: 493
Adding flit 996 as NACK at time 344
Reenqueueing errored packet 981 at time 346
Additional hops: 499
Adding flit 1037 as NACK at time 346
Reenqueueing errored packet 1003 at time 347
Additional hops: 504
Adding flit 1048 as NACK at time 348
Reenqueueing errored packet 1009 at time 349
Additional hops: 511
Adding flit 1035 as NACK at time 349
Additional hops: 517
Adding flit 1050 as NACK at time 351
Additional hops: 526
Adding flit 1023 as NACK at time 352
Reenqueueing errored packet 975 at time 355
Reenqueueing errored packet 1000 at time 358
Additional hops: 530
Adding flit 1090 as NACK at time 358
Reenqueueing errored packet 1048 at time 359
Reenqueueing errored packet 1037 at time 359
Reenqueueing errored packet 992 at time 359
Additional hops: 538
Adding flit 1055 as NACK at time 359
Reenqueueing errored packet 1050 at time 364
Reenqueueing errored packet 1035 at time 364
Reenqueueing errored packet 996 at time 365
Reenqueueing errored packet 1090 at time 367
Additional hops: 542
Adding flit 1114 as NACK at time 369
Reenqueueing errored packet 1023 at time 371
Additional hops: 551
Adding flit 1079 as NACK at time 372
Reenqueueing errored packet 1055 at time 376
Reenqueueing errored packet 1114 at time 378
Additional hops: 563
Adding flit 1037 as NACK at time 379
Reenqueueing errored packet 1079 at time 391
Additional hops: 573
Adding flit 1131 as NACK at time 391
Additional hops: 577
Adding flit 1202 as NACK at time 396
Additional hops: 582
Adding flit 1185 as NACK at time 397
Additional hops: 596
Adding flit 1113 as NACK at time 399
Reenqueueing errored packet 1037 at time 404
Reenqueueing errored packet 1202 at time 405
Reenqueueing errored packet 1185 at time 408
Reenqueueing errored packet 1131 at time 412
Additional hops: 600
Adding flit 1250 as NACK at time 413
Reenqueueing errored packet 1250 at time 422
Reenqueueing errored packet 1113 at time 428
Additional hops: 607
Adding flit 1275 as NACK at time 428
Additional hops: 618
Adding flit 1237 as NACK at time 430
Additional hops: 627
Adding flit 1272 as NACK at time 434
Additional hops: 632
Adding flit 1324 as NACK at time 434
Additional hops: 640
Adding flit 1250 as NACK at time 436
Additional hops: 646
Adding flit 1330 as NACK at time 438
Additional hops: 654
Adding flit 1301 as NACK at time 439
Additional hops: 662
Adding flit 1318 as NACK at time 442
Reenqueueing errored packet 1275 at time 443
Reenqueueing errored packet 1324 at time 445
Additional hops: 665
Adding flit 1389 as NACK at time 445
Additional hops: 671
Adding flit 1352 as NACK at time 447
Reenqueueing errored packet 1330 at time 451
Reenqueueing errored packet 1389 at time 452
Reenqueueing errored packet 1250 at time 453
Reenqueueing errored packet 1272 at time 453
Reenqueueing errored packet 1237 at time 453
Additional hops: 678
Adding flit 1372 as NACK at time 454
Additional hops: 684
Adding flit 1397 as NACK at time 455
Reenqueueing errored packet 1301 at time 456
Additional hops: 688
Adding flit 1426 as NACK at time 456
Additional hops: 695
Adding flit 1380 as NACK at time 456
Reenqueueing errored packet 1318 at time 459
Additional hops: 701
Adding flit 1416 as NACK at time 459
Reenqueueing errored packet 1352 at time 460
Additional hops: 710
Adding flit 1387 as NACK at time 464
Reenqueueing errored packet 1426 at time 465
Reenqueueing errored packet 1397 at time 468
Reenqueueing errored packet 1372 at time 469
Reenqueueing errored packet 1380 at time 471
Additional hops: 719
Adding flit 1428 as NACK at time 471
Reenqueueing errored packet 1416 at time 472
Additional hops: 723
Adding flit 1475 as NACK at time 472
Reenqueueing errored packet 1475 at time 481
Additional hops: 728
Adding flit 1499 as NACK at time 482
Reenqueueing errored packet 1387 at time 483
Additional hops: 744
Adding flit 1318 as NACK at time 485
Additional hops: 752
Adding flit 1487 as NACK at time 486
Additional hops: 760
Adding flit 1483 as NACK at time 486
Additional hops: 763
Adding flit 1541 as NACK at time 487
Additional hops: 770
Adding flit 1501 as NACK at time 488
Reenqueueing errored packet 1428 at time 490
Additional hops: 782
Adding flit 1457 as NACK at time 491
Reenqueueing errored packet 1499 at time 493
Reenqueueing errored packet 1541 at time 494
Additional hops: 789
Adding flit 1544 as NACK at time 500
Additional hops: 797
Adding flit 1534 as NACK at time 500
Additional hops: 807
Adding flit 1515 as NACK at time 501
Reenqueueing errored packet 1501 at time 503
Reenqueueing errored packet 1483 at time 503
Reenqueueing errored packet 1487 at time 503
Additional hops: 811
Adding flit 1598 as NACK at time 509
Additional hops: 821
Adding flit 1556 as NACK at time 514
Reenqueueing errored packet 1544 at time 515
Reenqueueing errored packet 1457 at time 516
Additional hops: 826
Adding flit 1606 as NACK at time 516
Reenqueueing errored packet 1534 at time 517
Reenqueueing errored packet 1598 at time 518
Reenqueueing errored packet 1318 at time 518
Reenqueueing errored packet 1515 at time 522
Reenqueueing errored packet 1606 at time 527
Additional hops: 831
Adding flit 1671 as NACK at time 531
Reenqueueing errored packet 1556 at time 535
Additional hops: 841
Adding flit 1622 as NACK at time 535
Additional hops: 852
Adding flit 1629 as NACK at time 539
Reenqueueing errored packet 1671 at time 542
Additional hops: 856
Adding flit 1717 as NACK at time 543
Additional hops: 862
Adding flit 1699 as NACK at time 545
Additional hops: 869
Adding flit 1698 as NACK at time 547
Reenqueueing errored packet 1717 at time 552
Additional hops: 877
Adding flit 1704 as NACK at time 552
Additional hops: 897
Adding flit 1515 as NACK at time 554
Additional hops: 901
Adding flit 1763 as NACK at time 555
Reenqueueing errored packet 1622 at time 556
Reenqueueing errored packet 1699 at time 558
Reenqueueing errored packet 1698 at time 562
Reenqueueing errored packet 1629 at time 562
Reenqueueing errored packet 1763 at time 564
Additional hops: 904
Adding flit 1812 as NACK at time 567
Reenqueueing errored packet 1704 at time 569
Reenqueueing errored packet 1812 at time 574
Additional hops: 908
Adding flit 1856 as NACK at time 579
Reenqueueing errored packet 1856 at time 588
Reenqueueing errored packet 1515 at time 595
Additional hops: 911
Adding flit 1909 as NACK at time 596
Additional hops: 919
Adding flit 1883 as NACK at time 601
Reenqueueing errored packet 1909 at time 603
Additional hops: 924
Adding flit 1910 as NACK at time 603
Additional hops: 933
Adding flit 1884 as NACK at time 605
Additional hops: 939
Adding flit 1912 as NACK at time 606
Additional hops: 947
Adding flit 1888 as NACK at time 606
Additional hops: 955
Adding flit 1895 as NACK at time 607
Additional hops: 960
Adding flit 1943 as NACK at time 613
Reenqueueing errored packet 1910 at time 614
Additional hops: 968
Adding flit 1918 as NACK at time 615
Reenqueueing errored packet 1883 at time 618
Reenqueueing errored packet 1912 at time 619
Reenqueueing errored packet 1888 at time 623
Additional hops: 979
Adding flit 1917 as NACK at time 623
Reenqueueing errored packet 1943 at time 624
Reenqueueing errored packet 1895 at time 624
Reenqueueing errored packet 1884 at time 624
Additional hops: 986
Adding flit 1980 as NACK at time 630
Reenqueueing errored packet 1918 at time 632
Additional hops: 994
Adding flit 1978 as NACK at time 633
Reenqueueing errored packet 1980 at time 645
Reenqueueing errored packet 1917 at time 646
Additional hops: 1010
Adding flit 1888 as NACK at time 649
Reenqueueing errored packet 1978 at time 650
Additional hops: 1015
Adding flit 2073 as NACK at time 652
Additional hops: 1033
Adding flit 1884 as NACK at time 654
Additional hops: 1039
Adding flit 2090 as NACK at time 661
Reenqueueing errored packet 2073 at time 663
Additional hops: 1048
Adding flit 2064 as NACK at time 663
Additional hops: 1053
Adding flit 2108 as NACK at time 664
Reenqueueing errored packet 2090 at time 674
Reenqueueing errored packet 2108 at time 675
Reenqueueing errored packet 2064 at time 682
Reenqueueing errored packet 1888 at time 682
Additional hops: 1062
Adding flit 2124 as NACK at time 684
Reenqueueing errored packet 1884 at time 691
Additional hops: 1072
Adding flit 2138 as NACK at time 694
Additional hops: 1077
Adding flit 2173 as NACK at time 695
Additional hops: 1082
Adding flit 2178 as NACK at time 696
Additional hops: 1085
Adding flit 2210 as NACK at time 699
Reenqueueing errored packet 2124 at time 703
Reenqueueing errored packet 2210 at time 706
Reenqueueing errored packet 2173 at time 706
Reenqueueing errored packet 2178 at time 707
Additional hops: 1094
Adding flit 2182 as NACK at time 709
Additional hops: 1106
Adding flit 2162 as NACK at time 712
Additional hops: 1116
Adding flit 2184 as NACK at time 713
Reenqueueing errored packet 2138 at time 715
Additional hops: 1124
Adding flit 2208 as NACK at time 715
Additional hops: 1131
Adding flit 2241 as NACK at time 721
Reenqueueing errored packet 2182 at time 728
Additional hops: 1141
Adding flit 2233 as NACK at time 728
Additional hops: 1152
Adding flit 2223 as NACK at time 728
Reenqueueing errored packet 2208 at time 732
Additional hops: 1160
Adding flit 2263 as NACK at time 732
Additional hops: 1178
Adding flit 2124 as NACK at time 733
Reenqueueing errored packet 2184 at time 734
Reenqueueing errored packet 2241 at time 736
Reenqueueing errored packet 2162 at time 737
Additional hops: 1182
Adding flit 2333 as NACK at time 742
Reenqueueing errored packet 2263 at time 749
Reenqueueing errored packet 2233 at time 749
Reenqueueing errored packet 2333 at time 751
Reenqueueing errored packet 2223 at time 751
Additional hops: 1190
Adding flit 2335 as NACK at time 755
Additional hops: 1202
Adding flit 2296 as NACK at time 756
Additional hops: 1211
Adding flit 2328 as NACK at time 756
Additional hops: 1220
Adding flit 2332 as NACK at time 757
Additional hops: 1228
Adding flit 2344 as NACK at time 759
Additional hops: 1235
Adding flit 2356 as NACK at time 762
Additional hops: 1243
Adding flit 2333 as NACK at time 765
Additional hops: 1251
Adding flit 2369 as NACK at time 769
Reenqueueing errored packet 2124 at time 770
Reenqueueing errored packet 2335 at time 772
Additional hops: 1264
Adding flit 2345 as NACK at time 774
Reenqueueing errored packet 2328 at time 775
Additional hops: 1280
Adding flit 2263 as NACK at time 775
Reenqueueing errored packet 2344 at time 776
Reenqueueing errored packet 2332 at time 776
Reenqueueing errored packet 2356 at time 777
Reenqueueing errored packet 2296 at time 781
Reenqueueing errored packet 2333 at time 782
Additional hops: 1286
Adding flit 2424 as NACK at time 782
Reenqueueing errored packet 2369 at time 786
Additional hops: 1293
Adding flit 2432 as NACK at time 788
Additional hops: 1299
Adding flit 2459 as NACK at time 794
Reenqueueing errored packet 2424 at time 795
Reenqueueing errored packet 2345 at time 801
Additional hops: 1308
Adding flit 2452 as NACK at time 801
Additional hops: 1321
Adding flit 2421 as NACK at time 802
Reenqueueing errored packet 2432 at time 803
Additional hops: 1326
Adding flit 2492 as NACK at time 805
Reenqueueing errored packet 2459 at time 807
Reenqueueing errored packet 2263 at time 808
Additional hops: 1334
Adding flit 2484 as NACK at time 810
Additional hops: 1340
Adding flit 2504 as NACK at time 811
Additional hops: 1346
Adding flit 2508 as NACK at time 812
Additional hops: 1352
Adding flit 2512 as NACK at time 813
Additional hops: 1356
Adding flit 2534 as NACK at time 814
Reenqueueing errored packet 2492 at time 816
Reenqueueing errored packet 2452 at time 820
Additional hops: 1366
Adding flit 2489 as NACK at time 820
Additional hops: 1381
Adding flit 2453 as NACK at time 820
Additional hops: 1387
Adding flit 2538 as NACK at time 821
Additional hops: 1399
Adding flit 2482 as NACK at time 821
Additional hops: 1406
Adding flit 2531 as NACK at time 822
Reenqueueing errored packet 2534 at time 823
Reenqueueing errored packet 2504 at time 824
Additional hops: 1414
Adding flit 2525 as NACK at time 824
Reenqueueing errored packet 2508 at time 825
Reenqueueing errored packet 2512 at time 826
Reenqueueing errored packet 2484 at time 827
Reenqueueing errored packet 2421 at time 829
Additional hops: 1420
Adding flit 2575 as NACK at time 833
Reenqueueing errored packet 2538 at time 834
Additional hops: 1425
Adding flit 2591 as NACK at time 835
Reenqueueing errored packet 2531 at time 837
Additional hops: 1429
Adding flit 2604 as NACK at time 839
Reenqueueing errored packet 2525 at time 841
Reenqueueing errored packet 2489 at time 841
Additional hops: 1432
Adding flit 2622 as NACK at time 843
Additional hops: 1438
Adding flit 2599 as NACK at time 844
Reenqueueing errored packet 2591 at time 846
Reenqueueing errored packet 2575 at time 846
Reenqueueing errored packet 2482 at time 846
Reenqueueing errored packet 2604 at time 848
Reenqueueing errored packet 2622 at time 850
Reenqueueing errored packet 2453 at time 851
Additional hops: 1449
Adding flit 2587 as NACK at time 852
Additional hops: 1454
Adding flit 2638 as NACK at time 856
Reenqueueing errored packet 2599 at time 857
Additional hops: 1458
Adding flit 2666 as NACK at time 860
Additional hops: 1466
Adding flit 2604 as NACK at time 863
Additional hops: 1472
Adding flit 2662 as NACK at time 864
Additional hops: 1479
Adding flit 2654 as NACK at time 865
Reenqueueing errored packet 2638 at time 867
Additional hops: 1488
Adding flit 2635 as NACK at time 867
Reenqueueing errored packet 2666 at time 869
Additional hops: 1498
Adding flit 2646 as NACK at time 874
Reenqueueing errored packet 2587 at time 875
Reenqueueing errored packet 2662 at time 877
Additional hops: 1502
Adding flit 2732 as NACK at time 879
Reenqueueing errored packet 2654 at time 880
Reenqueueing errored packet 2604 at time 880
Additional hops: 1510
Adding flit 2666 as NACK at time 883
Reenqueueing errored packet 2635 at time 886
Additional hops: 1522
Adding flit 2681 as NACK at time 887
Reenqueueing errored packet 2732 at time 888
Additional hops: 1527
Adding flit 2752 as NACK at time 889
Additional hops: 1538
Adding flit 2702 as NACK at time 892
Reenqueueing errored packet 2646 at time 895
Additional hops: 1550
Adding flit 2662 as NACK at time 897
Reenqueueing errored packet 2752 at time 900
Reenqueueing errored packet 2666 at time 900
Additional hops: 1555
Adding flit 2792 as NACK at time 901
Additional hops: 1562
Adding flit 2780 as NACK at time 904
Additional hops: 1573
Adding flit 2748 as NACK at time 905
Additional hops: 1581
Adding flit 2776 as NACK at time 906
Additional hops: 1593
Adding flit 2743 as NACK at time 907
Reenqueueing errored packet 2792 at time 912
Reenqueueing errored packet 2681 at time 912
Reenqueueing errored packet 2702 at time 915
Additional hops: 1597
Adding flit 2843 as NACK at time 918
Reenqueueing errored packet 2780 at time 919
Reenqueueing errored packet 2662 at time 922
Reenqueueing errored packet 2776 at time 923
Additional hops: 1604
Adding flit 2831 as NACK at time 923
Reenqueueing errored packet 2843 at time 927
Reenqueueing errored packet 2748 at time 928
Reenqueueing errored packet 2743 at time 932
Additional hops: 1615
Adding flit 2826 as NACK at time 933
Additional hops: 1626
Adding flit 2836 as NACK at time 937
Reenqueueing errored packet 2831 at time 938
Additional hops: 1634
Adding flit 2903 as NACK at time 947
Additional hops: 1638
Adding flit 2950 as NACK at time 950
Additional hops: 1651
Adding flit 2871 as NACK at time 951
Additional hops: 1659
Adding flit 2916 as NACK at time 952
Additional hops: 1663
Adding flit 2957 as NACK at time 953
Reenqueueing errored packet 2826 at time 956
Reenqueueing errored packet 2950 at time 959
Reenqueueing errored packet 2836 at time 960
Additional hops: 1666
Adding flit 2978 as NACK at time 960
Reenqueueing errored packet 2957 at time 962
Reenqueueing errored packet 2903 at time 964
Additional hops: 1677
Adding flit 2926 as NACK at time 964
Additional hops: 1683
Adding flit 2969 as NACK at time 964
Additional hops: 1691
Adding flit 2959 as NACK at time 965
Reenqueueing errored packet 2978 at time 967
Reenqueueing errored packet 2916 at time 969
Reenqueueing errored packet 2969 at time 977
Reenqueueing errored packet 2871 at time 978
Additional hops: 1698
Adding flit 2997 as NACK at time 979
Reenqueueing errored packet 2959 at time 982
Reenqueueing errored packet 2926 at time 987
Additional hops: 1705
Adding flit 3021 as NACK at time 987
Reenqueueing errored packet 2997 at time 994
Additional hops: 1711
Adding flit 3050 as NACK at time 995
Additional hops: 1719
Adding flit 3047 as NACK at time 1000
Reenqueueing errored packet 3021 at time 1002
Additional hops: 1728
Adding flit 3046 as NACK at time 1003
Reenqueueing errored packet 3050 at time 1008
Additional hops: 1738
Adding flit 3065 as NACK at time 1012
Additional hops: 1742
Adding flit 3140 as NACK at time 1013
Additional hops: 1747
Adding flit 3130 as NACK at time 1013
Reenqueueing errored packet 3047 at time 1017
Additional hops: 1754
Adding flit 3128 as NACK at time 1018
Additional hops: 1780
Adding flit 2871 as NACK at time 1019
Additional hops: 1791
Adding flit 3088 as NACK at time 1020
Reenqueueing errored packet 3140 at time 1022
Reenqueueing errored packet 3046 at time 1022
Reenqueueing errored packet 3130 at time 1024
Additional hops: 1798
Adding flit 3143 as NACK at time 1024
Reenqueueing errored packet 3128 at time 1033
Reenqueueing errored packet 3065 at time 1033
Additional hops: 1803
Adding flit 3194 as NACK at time 1035
Additional hops: 1816
Adding flit 3131 as NACK at time 1037
Reenqueueing errored packet 3143 at time 1039
Reenqueueing errored packet 3088 at time 1043
Reenqueueing errored packet 3194 at time 1046
Additional hops: 1828
Adding flit 3177 as NACK at time 1051
Additional hops: 1839
Adding flit 3214 as NACK at time 1061
Reenqueueing errored packet 3131 at time 1064
Additional hops: 1848
Adding flit 3236 as NACK at time 1065
Reenqueueing errored packet 2871 at time 1072
Additional hops: 1862
Adding flit 3221 as NACK at time 1073
Reenqueueing errored packet 3177 at time 1076
Additional hops: 1874
Adding flit 3242 as NACK at time 1076
Additional hops: 1881
Adding flit 3299 as NACK at time 1081
Additional hops: 1888
Adding flit 3298 as NACK at time 1081
Reenqueueing errored packet 3236 at time 1084
Reenqueueing errored packet 3214 at time 1084
Additional hops: 1894
Adding flit 3326 as NACK at time 1086
Additional hops: 1903
Adding flit 3317 as NACK at time 1093
Additional hops: 1908
Adding flit 3370 as NACK at time 1094
Reenqueueing errored packet 3298 at time 1096
Reenqueueing errored packet 3299 at time 1096
Additional hops: 1910
Adding flit 3417 as NACK at time 1098
Reenqueueing errored packet 3326 at time 1099
Reenqueueing errored packet 3242 at time 1101
Additional hops: 1918
Adding flit 3358 as NACK at time 1101
Additional hops: 1925
Adding flit 3376 as NACK at time 1101
Reenqueueing errored packet 3221 at time 1102
Reenqueueing errored packet 3417 at time 1103
Reenqueueing errored packet 3370 at time 1105
Additional hops: 1935
Adding flit 3377 as NACK at time 1110
Reenqueueing errored packet 3317 at time 1112
Additional hops: 1943
Adding flit 3398 as NACK at time 1112
Additional hops: 1956
Adding flit 3346 as NACK at time 1112
Additional hops: 1964
Adding flit 3401 as NACK at time 1113
Reenqueueing errored packet 3376 at time 1116
Reenqueueing errored packet 3358 at time 1118
Additional hops: 1976
Adding flit 3326 as NACK at time 1119
Additional hops: 1987
Adding flit 3394 as NACK at time 1119
Additional hops: 1996
Adding flit 3420 as NACK at time 1121
Reenqueueing errored packet 3398 at time 1129
Reenqueueing errored packet 3401 at time 1130
Reenqueueing errored packet 3377 at time 1131
Additional hops: 2004
Adding flit 3474 as NACK at time 1132
Additional hops: 2013
Adding flit 3491 as NACK at time 1138
Reenqueueing errored packet 3346 at time 1139
Additional hops: 2015
Adding flit 3557 as NACK at time 1139
Reenqueueing errored packet 3420 at time 1140
Reenqueueing errored packet 3394 at time 1142
Additional hops: 2024
Adding flit 3502 as NACK at time 1142
Reenqueueing errored packet 3557 at time 1144
Reenqueueing errored packet 3326 at time 1144
Additional hops: 2035
Adding flit 3492 as NACK at time 1145
Additional hops: 2039
Adding flit 3569 as NACK at time 1148
Reenqueueing errored packet 3474 at time 1149
Additional hops: 2046
Adding flit 3549 as NACK at time 1153
Additional hops: 2059
Adding flit 3500 as NACK at time 1153
Additional hops: 2066
Adding flit 3559 as NACK at time 1155
Reenqueueing errored packet 3569 at time 1157
Reenqueueing errored packet 3491 at time 1157
Additional hops: 2070
Adding flit 3593 as NACK at time 1157
Reenqueueing errored packet 3502 at time 1161
Additional hops: 2075
Adding flit 3600 as NACK at time 1162
Reenqueueing errored packet 3593 at time 1166
Reenqueueing errored packet 3549 at time 1168
Reenqueueing errored packet 3492 at time 1168
Reenqueueing errored packet 3559 at time 1170
Reenqueueing errored packet 3600 at time 1173
Additional hops: 2084
Adding flit 3598 as NACK at time 1173
Additional hops: 2091
Adding flit 3631 as NACK at time 1176
Additional hops: 2099
Adding flit 3627 as NACK at time 1178
Reenqueueing errored packet 3500 at time 1180
Additional hops: 2108
Adding flit 3654 as NACK at time 1189
Additional hops: 2113
Adding flit 3693 as NACK at time 1190
Reenqueueing errored packet 3631 at time 1191
Reenqueueing errored packet 3598 at time 1192
Additional hops: 2121
Adding flit 3672 as NACK at time 1192
Additional hops: 2129
Adding flit 3671 as NACK at time 1193
Reenqueueing errored packet 3627 at time 1195
Additional hops: 2135
Adding flit 3716 as NACK at time 1197
Reenqueueing errored packet 3693 at time 1201
Additional hops: 2141
Adding flit 3734 as NACK at time 1201
Additional hops: 2152
Adding flit 3686 as NACK at time 1205
Additional hops: 2160
Adding flit 3732 as NACK at time 1206
Reenqueueing errored packet 3654 at time 1208
Reenqueueing errored packet 3672 at time 1209
Additional hops: 2167
Adding flit 3749 as NACK at time 1209
Reenqueueing errored packet 3716 at time 1210
Reenqueueing errored packet 3671 at time 1210
Additional hops: 2177
Adding flit 3719 as NACK at time 1210
Reenqueueing errored packet 3734 at time 1214
Reenqueueing errored packet 3732 at time 1223
Reenqueueing errored packet 3749 at time 1224
Additional hops: 2182
Adding flit 3812 as NACK at time 1227
Additional hops: 2191
Adding flit 3780 as NACK at time 1227
Reenqueueing errored packet 3686 at time 1228
Reenqueueing errored packet 3719 at time 1231
Additional hops: 2197
Adding flit 3817 as NACK at time 1231
Additional hops: 2203
Adding flit 3828 as NACK at time 1234
Additional hops: 2213
Adding flit 3791 as NACK at time 1234
Reenqueueing errored packet 3812 at time 1238
Additional hops: 2218
Adding flit 3851 as NACK at time 1238
Additional hops: 2223
Adding flit 3860 as NACK at time 1241
Reenqueueing errored packet 3817 at time 1244
Additional hops: 2233
Adding flit 3825 as NACK at time 1245
Reenqueueing errored packet 3780 at time 1246
Additional hops: 2238
Adding flit 3878 as NACK at time 1246
Reenqueueing errored packet 3828 at time 1247
Reenqueueing errored packet 3851 at time 1249
Additional hops: 2249
Adding flit 3826 as NACK at time 1249
Additional hops: 2255
Adding flit 3877 as NACK at time 1249
Reenqueueing errored packet 3860 at time 1252
Additional hops: 2260
Adding flit 3898 as NACK at time 1253
Reenqueueing errored packet 3791 at time 1255
Reenqueueing errored packet 3878 at time 1257
Reenqueueing errored packet 3877 at time 1262
Reenqueueing errored packet 3898 at time 1264
Reenqueueing errored packet 3825 at time 1266
Additional hops: 2270
Adding flit 3851 as NACK at time 1266
Additional hops: 2280
Adding flit 3894 as NACK at time 1267
Additional hops: 2288
Adding flit 3925 as NACK at time 1270
Reenqueueing errored packet 3826 at time 1272
Additional hops: 2293
Adding flit 3963 as NACK at time 1277
Additional hops: 2298
Adding flit 3978 as NACK at time 1282
Additional hops: 2309
Adding flit 3946 as NACK at time 1286
Reenqueueing errored packet 3925 at time 1287
Reenqueueing errored packet 3851 at time 1287
Reenqueueing errored packet 3963 at time 1288
Reenqueueing errored packet 3894 at time 1288
Additional hops: 2318
Adding flit 3965 as NACK at time 1289
Reenqueueing errored packet 3978 at time 1293
Additional hops: 2326
Adding flit 3983 as NACK at time 1294
Additional hops: 2336
Adding flit 3973 as NACK at time 1297
Additional hops: 2340
Adding flit 4033 as NACK at time 1298
Additional hops: 2346
Adding flit 4020 as NACK at time 1299
Additional hops: 2350
Adding flit 4042 as NACK at time 1299
Additional hops: 2358
Adding flit 4017 as NACK at time 1304
Reenqueueing errored packet 4033 at time 1307
Reenqueueing errored packet 4042 at time 1308
Reenqueueing errored packet 3965 at time 1308
Additional hops: 2364
Adding flit 4047 as NACK at time 1308
Reenqueueing errored packet 3946 at time 1309
Reenqueueing errored packet 3983 at time 1311
Reenqueueing errored packet 4020 at time 1312
Additional hops: 2368
Adding flit 4093 as NACK at time 1313
Additional hops: 2375
Adding flit 4060 as NACK at time 1315
Reenqueueing errored packet 3973 at time 1318
Additional hops: 2382
Adding flit 4077 as NACK at time 1318
Additional hops: 2389
Adding flit 4083 as NACK at time 1319
Additional hops: 2396
Adding flit 4079 as NACK at time 1319
Reenqueueing errored packet 4047 at time 1321
Reenqueueing errored packet 4017 at time 1321
Reenqueueing errored packet 4093 at time 1322
Additional hops: 2404
Adding flit 4088 as NACK at time 1323
Additional hops: 2410
Adding flit 4113 as NACK at time 1325
Reenqueueing errored packet 4060 at time 1330
Reenqueueing errored packet 4077 at time 1333
Reenqueueing errored packet 4079 at time 1334
Reenqueueing errored packet 4083 at time 1334
Additional hops: 2418
Adding flit 4093 as NACK at time 1336
Additional hops: 2434
Adding flit 3983 as NACK at time 1337
Reenqueueing errored packet 4113 at time 1338
Reenqueueing errored packet 4088 at time 1340
Additional hops: 2441
Adding flit 4153 as NACK at time 1343
Additional hops: 2446
Adding flit 4178 as NACK at time 1345
Additional hops: 2452
Adding flit 4173 as NACK at time 1348
Additional hops: 2454
Adding flit 4219 as NACK at time 1348
Reenqueueing errored packet 4219 at time 1353
Reenqueueing errored packet 4093 at time 1353
Reenqueueing errored packet 4178 at time 1356
Reenqueueing errored packet 4153 at time 1358
Reenqueueing errored packet 4173 at time 1361
Additional hops: 2459
Adding flit 4254 as NACK at time 1366
Reenqueueing errored packet 3983 at time 1370
Additional hops: 2470
Adding flit 4208 as NACK at time 1372
Reenqueueing errored packet 4254 at time 1377
Additional hops: 2484
Adding flit 4153 as NACK at time 1382
Additional hops: 2490
Adding flit 4298 as NACK at time 1383
Additional hops: 2497
Adding flit 4297 as NACK at time 1386
Additional hops: 2510
Adding flit 4238 as NACK at time 1386
Additional hops: 2519
Adding flit 4285 as NACK at time 1387
Additional hops: 2527
Adding flit 4295 as NACK at time 1388
Additional hops: 2539
Adding flit 4259 as NACK at time 1388
Additional hops: 2546
Adding flit 4322 as NACK at time 1392
Reenqueueing errored packet 4208 at time 1395
Additional hops: 2552
Adding flit 4337 as NACK at time 1395
Reenqueueing errored packet 4298 at time 1396
Additional hops: 2576
Adding flit 3983 as NACK at time 1396
Reenqueueing errored packet 4297 at time 1401
Reenqueueing errored packet 4295 at time 1405
Reenqueueing errored packet 4285 at time 1406
Additional hops: 2585
Adding flit 4349 as NACK at time 1406
Reenqueueing errored packet 4322 at time 1407
Reenqueueing errored packet 4337 at time 1408
Additional hops: 2599
Adding flit 4313 as NACK at time 1410
Reenqueueing errored packet 4153 at time 1411
Reenqueueing errored packet 4259 at time 1413
Reenqueueing errored packet 4238 at time 1413
Additional hops: 2604
Adding flit 4407 as NACK at time 1414
Additional hops: 2607
Adding flit 4432 as NACK at time 1415
Additional hops: 2618
Adding flit 4357 as NACK at time 1416
Additional hops: 2629
Adding flit 4365 as NACK at time 1418
Reenqueueing errored packet 4432 at time 1422
Additional hops: 2636
Adding flit 4418 as NACK at time 1423
Reenqueueing errored packet 4407 at time 1425
Reenqueueing errored packet 4349 at time 1425
Additional hops: 2650
Adding flit 4322 as NACK at time 1430
Additional hops: 2656
Adding flit 4455 as NACK at time 1430
Additional hops: 2663
Adding flit 4467 as NACK at time 1435
Additional hops: 2671
Adding flit 4456 as NACK at time 1436
Reenqueueing errored packet 4418 at time 1438
Reenqueueing errored packet 4357 at time 1439
Reenqueueing errored packet 4313 at time 1439
Additional hops: 2679
Adding flit 4475 as NACK at time 1440
Additional hops: 2683
Adding flit 4509 as NACK at time 1440
Reenqueueing errored packet 4365 at time 1441
Reenqueueing errored packet 4455 at time 1443
Reenqueueing errored packet 3983 at time 1445
Reenqueueing errored packet 4509 at time 1449
Additional hops: 2691
Adding flit 4501 as NACK at time 1449
Reenqueueing errored packet 4467 at time 1450
Additional hops: 2699
Adding flit 4502 as NACK at time 1450
Additional hops: 2710
Adding flit 4478 as NACK at time 1451
Reenqueueing errored packet 4456 at time 1453
Additional hops: 2717
Adding flit 4517 as NACK at time 1455
Reenqueueing errored packet 4475 at time 1457
Additional hops: 2724
Adding flit 4523 as NACK at time 1457
Reenqueueing errored packet 4322 at time 1459
Additional hops: 2728
Adding flit 4556 as NACK at time 1460
Reenqueueing errored packet 4501 at time 1466
Additional hops: 2740
Adding flit 4510 as NACK at time 1466
Reenqueueing errored packet 4502 at time 1467
Reenqueueing errored packet 4556 at time 1469
Additional hops: 2749
Adding flit 4537 as NACK at time 1469
Reenqueueing errored packet 4517 at time 1470
Additional hops: 2757
Adding flit 4550 as NACK at time 1470
Reenqueueing errored packet 4523 at time 1472
Reenqueueing errored packet 4478 at time 1474
Additional hops: 2762
Adding flit 4585 as NACK at time 1474
Additional hops: 2784
Adding flit 4365 as NACK at time 1476
Additional hops: 2800
Adding flit 4456 as NACK at time 1479
Additional hops: 2809
Adding flit 4575 as NACK at time 1482
Reenqueueing errored packet 4585 at time 1485
Reenqueueing errored packet 4550 at time 1487
Reenqueueing errored packet 4537 at time 1488
Additional hops: 2817
Adding flit 4603 as NACK at time 1488
Reenqueueing errored packet 4510 at time 1491
Additional hops: 2824
Adding flit 4642 as NACK at time 1496
Additional hops: 2831
Adding flit 4647 as NACK at time 1497
Reenqueueing errored packet 4575 at time 1501
Reenqueueing errored packet 4603 at time 1505
Additional hops: 2838
Adding flit 4694 as NACK at time 1509
Additional hops: 2851
Adding flit 4626 as NACK at time 1510
Reenqueueing errored packet 4642 at time 1511
Reenqueueing errored packet 4647 at time 1512
Reenqueueing errored packet 4456 at time 1512
Additional hops: 2869
Adding flit 4537 as NACK at time 1517
Additional hops: 2874
Adding flit 4739 as NACK at time 1517
Reenqueueing errored packet 4365 at time 1521
Additional hops: 2882
Adding flit 4724 as NACK at time 1521
Reenqueueing errored packet 4694 at time 1524
Additional hops: 2888
Adding flit 4751 as NACK at time 1525
Additional hops: 2896
Adding flit 4734 as NACK at time 1525
Additional hops: 2905
Adding flit 4733 as NACK at time 1527
Reenqueueing errored packet 4739 at time 1528
Additional hops: 2915
Adding flit 4741 as NACK at time 1532
Additional hops: 2919
Adding flit 4791 as NACK at time 1532
Reenqueueing errored packet 4626 at time 1537
Reenqueueing errored packet 4751 at time 1538
Reenqueueing errored packet 4724 at time 1538
Additional hops: 2925
Adding flit 4794 as NACK at time 1540
Additional hops: 2930
Adding flit 4801 as NACK at time 1540
Reenqueueing errored packet 4791 at time 1541
Reenqueueing errored packet 4734 at time 1542
Additional hops: 2936
Adding flit 4800 as NACK at time 1542
Reenqueueing errored packet 4733 at time 1546
Additional hops: 2947
Adding flit 4778 as NACK at time 1549
Reenqueueing errored packet 4801 at time 1551
Reenqueueing errored packet 4794 at time 1553
Reenqueueing errored packet 4741 at time 1553
Additional hops: 2956
Adding flit 4805 as NACK at time 1553
Reenqueueing errored packet 4537 at time 1554
Reenqueueing errored packet 4800 at time 1555
Additional hops: 2989
Adding flit 4365 as NACK at time 1556
Additional hops: 2997
Adding flit 4824 as NACK at time 1557
Additional hops: 3006
Adding flit 4839 as NACK at time 1563
Additional hops: 3022
Adding flit 4724 as NACK at time 1564
Additional hops: 3029
Adding flit 4875 as NACK at time 1566
Additional hops: 3035
Adding flit 4904 as NACK at time 1570
Reenqueueing errored packet 4805 at time 1572
Reenqueueing errored packet 4778 at time 1572
Reenqueueing errored packet 4824 at time 1574
Additional hops: 3053
Adding flit 4733 as NACK at time 1576
Additional hops: 3059
Adding flit 4930 as NACK at time 1577
Additional hops: 3068
Adding flit 4910 as NACK at time 1580
Reenqueueing errored packet 4875 at time 1581
Reenqueueing errored packet 4839 at time 1582
Reenqueueing errored packet 4904 at time 1583
Additional hops: 3079
Adding flit 4905 as NACK at time 1585
Additional hops: 3088
Adding flit 4929 as NACK at time 1586
Reenqueueing errored packet 4930 at time 1590
Reenqueueing errored packet 4724 at time 1597
Reenqueueing errored packet 4910 at time 1599
Reenqueueing errored packet 4929 at time 1605
Reenqueueing errored packet 4905 at time 1608
Additional hops: 3095
Adding flit 5021 as NACK at time 1608
Additional hops: 3098
Adding flit 5057 as NACK at time 1608
Reenqueueing errored packet 4733 at time 1613
Reenqueueing errored packet 5057 at time 1615
Additional hops: 3107
Adding flit 5030 as NACK at time 1618
Additional hops: 3114
Adding flit 5055 as NACK at time 1620
Additional hops: 3123
Adding flit 5040 as NACK at time 1621
Reenqueueing errored packet 5021 at time 1623
Reenqueueing errored packet 4365 at time 1623
Additional hops: 3132
Adding flit 5069 as NACK at time 1629
Reenqueueing errored packet 5055 at time 1635
Reenqueueing errored packet 5030 at time 1637
Reenqueueing errored packet 5040 at time 1640
Additional hops: 3143
Adding flit 5090 as NACK at time 1641
Additional hops: 3152
Adding flit 5112 as NACK at time 1642
Reenqueueing errored packet 5069 at time 1648
Additional hops: 3160
Adding flit 5146 as NACK at time 1648
Additional hops: 3163
Adding flit 5212 as NACK at time 1657
Additional hops: 3167
Adding flit 5206 as NACK at time 1657
Reenqueueing errored packet 5112 at time 1661
Reenqueueing errored packet 5212 at time 1664
Reenqueueing errored packet 5090 at time 1664
Reenqueueing errored packet 5146 at time 1665
Reenqueueing errored packet 5206 at time 1666
Additional hops: 3177
Adding flit 5192 as NACK at time 1670
Additional hops: 3184
Adding flit 5223 as NACK at time 1672
Additional hops: 3190
Adding flit 5232 as NACK at time 1672
Additional hops: 3197
Adding flit 5234 as NACK at time 1676
Additional hops: 3204
Adding flit 5249 as NACK at time 1679
Additional hops: 3211
Adding flit 5253 as NACK at time 1680
Reenqueueing errored packet 5232 at time 1685
Additional hops: 3216
Adding flit 5289 as NACK at time 1685
Reenqueueing errored packet 5223 at time 1687
Additional hops: 3225
Adding flit 5257 as NACK at time 1687
Reenqueueing errored packet 5234 at time 1691
Reenqueueing errored packet 5192 at time 1691
Reenqueueing errored packet 5249 at time 1694
Reenqueueing errored packet 5253 at time 1695
Reenqueueing errored packet 5289 at time 1696
Additional hops: 3230
Adding flit 5350 as NACK at time 1705
Reenqueueing errored packet 5257 at time 1706
Additional hops: 3234
Adding flit 5366 as NACK at time 1707
Additional hops: 3243
Adding flit 5331 as NACK at time 1710
Reenqueueing errored packet 5366 at time 1716
Reenqueueing errored packet 5350 at time 1716
Additional hops: 3245
Adding flit 5420 as NACK at time 1721
Additional hops: 3252
Adding flit 5381 as NACK at time 1721
Additional hops: 3272
Adding flit 5192 as NACK at time 1723
Reenqueueing errored packet 5420 at time 1726
Additional hops: 3280
Adding flit 5385 as NACK at time 1726
Additional hops: 3284
Adding flit 5426 as NACK at time 1728
Reenqueueing errored packet 5331 at time 1729
Additional hops: 3290
Adding flit 5404 as NACK at time 1729
Additional hops: 3293
Adding flit 5434 as NACK at time 1731
Reenqueueing errored packet 5381 at time 1736
Additional hops: 3301
Adding flit 5409 as NACK at time 1736
Reenqueueing errored packet 5426 at time 1737
Reenqueueing errored packet 5434 at time 1738
Reenqueueing errored packet 5404 at time 1742
Reenqueueing errored packet 5385 at time 1743
Additional hops: 3308
Adding flit 5447 as NACK at time 1748
Additional hops: 3317
Adding flit 5435 as NACK at time 1748
Reenqueueing errored packet 5409 at time 1753
Additional hops: 3327
Adding flit 5459 as NACK at time 1758
Additional hops: 3337
Adding flit 5465 as NACK at time 1759
Additional hops: 3345
Adding flit 5485 as NACK at time 1761
Reenqueueing errored packet 5447 at time 1763
Reenqueueing errored packet 5192 at time 1764
Additional hops: 3348
Adding flit 5540 as NACK at time 1766
Reenqueueing errored packet 5435 at time 1767
Reenqueueing errored packet 5540 at time 1773
Additional hops: 3355
Adding flit 5531 as NACK at time 1775
Additional hops: 3368
Adding flit 5483 as NACK at time 1775
Reenqueueing errored packet 5485 at time 1778
Reenqueueing errored packet 5459 at time 1779
Reenqueueing errored packet 5465 at time 1780
Uncorrectable 3
Additional hops: 3376
Adding flit 5566 as NACK at time 1789
Reenqueueing errored packet 5531 at time 1790
Additional hops: 3381
Adding flit 5597 as NACK at time 1792
Additional hops: 3386
Adding flit 5610 as NACK at time 1796
Additional hops: 3393
Adding flit 5602 as NACK at time 1799
Reenqueueing errored packet 5483 at time 1802
Reenqueueing errored packet 5597 at time 1803
Reenqueueing errored packet 5566 at time 1806
Reenqueueing errored packet 5610 at time 1807
Reenqueueing errored packet 5602 at time 1814
Additional hops: 3402
Adding flit 5634 as NACK at time 1814
Additional hops: 3404
Adding flit 5703 as NACK at time 1816
Additional hops: 3408
Adding flit 5692 as NACK at time 1818
Reenqueueing errored packet 5703 at time 1821
Additional hops: 3414
Adding flit 5685 as NACK at time 1823
Reenqueueing errored packet 5692 at time 1827
Additional hops: 3422
Adding flit 5687 as NACK at time 1831
Additional hops: 3428
Adding flit 5715 as NACK at time 1832
Additional hops: 3434
Adding flit 5712 as NACK at time 1832
Reenqueueing errored packet 5634 at time 1833
Additional hops: 3442
Adding flit 5698 as NACK at time 1833
Reenqueueing errored packet 5685 at time 1836
Reenqueueing errored packet 5712 at time 1845
Reenqueueing errored packet 5715 at time 1845
Reenqueueing errored packet 5687 at time 1848
Reenqueueing errored packet 5698 at time 1850
Additional hops: 3449
Adding flit 5777 as NACK at time 1851
Additional hops: 3455
Adding flit 5793 as NACK at time 1853
Additional hops: 3463
Adding flit 5811 as NACK at time 1864
Additional hops: 3470
Adding flit 5827 as NACK at time 1865
Reenqueueing errored packet 5793 at time 1866
Reenqueueing errored packet 5777 at time 1866
Additional hops: 3481
Adding flit 5816 as NACK at time 1875
Additional hops: 3487
Adding flit 5866 as NACK at time 1876
Reenqueueing errored packet 5827 at time 1880
Additional hops: 3499
Adding flit 5828 as NACK at time 1880
Reenqueueing errored packet 5811 at time 1881
Reenqueueing errored packet 5866 at time 1889
Reenqueueing errored packet 5816 at time 1898
Additional hops: 3509
Adding flit 5899 as NACK at time 1898
Reenqueueing errored packet 5828 at time 1905
Additional hops: 3519
Adding flit 5928 as NACK at time 1906
Additional hops: 3526
Adding flit 5966 as NACK at time 1910
Additional hops: 3533
Adding flit 5975 as NACK at time 1912
Additional hops: 3540
Adding flit 5981 as NACK at time 1914
Additional hops: 3549
Adding flit 5973 as NACK at time 1918
Reenqueueing errored packet 5899 at time 1919
Reenqueueing errored packet 5966 at time 1925
Reenqueueing errored packet 5975 at time 1927
Reenqueueing errored packet 5928 at time 1927
Reenqueueing errored packet 5981 at time 1929
Additional hops: 3557
Adding flit 6023 as NACK at time 1930
Additional hops: 3579
Adding flit 5816 as NACK at time 1933
Reenqueueing errored packet 5973 at time 1937
Additional hops: 3585
Adding flit 6067 as NACK at time 1939
Additional hops: 3609
Adding flit 5828 as NACK at time 1943
Additional hops: 3614
Adding flit 6095 as NACK at time 1944
Additional hops: 3629
Adding flit 6005 as NACK at time 1945
Reenqueueing errored packet 6023 at time 1947
Additional hops: 3638
Adding flit 6065 as NACK at time 1947
Reenqueueing errored packet 6067 at time 1952
Additional hops: 3652
Adding flit 5981 as NACK at time 1953
Reenqueueing errored packet 6095 at time 1955
Additional hops: 3658
Adding flit 6128 as NACK at time 1956
Additional hops: 3669
Adding flit 6078 as NACK at time 1957
Additional hops: 3677
Adding flit 6124 as NACK at time 1961
Additional hops: 3686
Adding flit 6126 as NACK at time 1964
Additional hops: 3693
Adding flit 6147 as NACK at time 1965
Reenqueueing errored packet 6065 at time 1966
Additional hops: 3711
Adding flit 5973 as NACK at time 1966
Additional hops: 3718
Adding flit 6153 as NACK at time 1966
Reenqueueing errored packet 6128 at time 1969
Additional hops: 3734
Adding flit 6023 as NACK at time 1973
Additional hops: 3742
Adding flit 6164 as NACK at time 1974
Reenqueueing errored packet 6005 at time 1976
Reenqueueing errored packet 6124 at time 1978
Reenqueueing errored packet 5816 at time 1978
Reenqueueing errored packet 6147 at time 1980
Reenqueueing errored packet 6078 at time 1980
Additional hops: 3753
Adding flit 6161 as NACK at time 1980
Reenqueueing errored packet 6153 at time 1981
Reenqueueing errored packet 5981 at time 1982
Reenqueueing errored packet 6126 at time 1983
Additional hops: 3757
Adding flit 6227 as NACK at time 1986
Additional hops: 3762
Adding flit 6223 as NACK at time 1988
Reenqueueing errored packet 6164 at time 1991
Additional hops: 3771
Adding flit 6200 as NACK at time 1991
Reenqueueing errored packet 5828 at time 1992
Reenqueueing errored packet 6227 at time 1995
Reenqueueing errored packet 6223 at time 1999
Additional hops: 3782
Adding flit 6206 as NACK at time 2000
Additional hops: 3791
Adding flit 6230 as NACK at time 2001
Additional hops: 3797
Adding flit 6264 as NACK at time 2002
Additional hops: 3801
Adding flit 6283 as NACK at time 2002
Reenqueueing errored packet 6161 at time 2003
Reenqueueing errored packet 5973 at time 2003
Additional hops: 3815
Adding flit 6153 as NACK at time 2004
Reenqueueing errored packet 6023 at time 2006
Additional hops: 3824
Adding flit 6260 as NACK at time 2009
Reenqueueing errored packet 6200 at time 2010
Additional hops: 3831
Adding flit 6281 as NACK at time 2010
Reenqueueing errored packet 6283 at time 2011
Additional hops: 3838
Adding flit 6292 as NACK at time 2013
Reenqueueing errored packet 6264 at time 2015
Additional hops: 3845
Adding flit 6295 as NACK at time 2016
Reenqueueing errored packet 6230 at time 2020
Reenqueueing errored packet 6206 at time 2023
Additional hops: 3854
Adding flit 6302 as NACK at time 2024
Additional hops: 3862
Adding flit 6313 as NACK at time 2024
Reenqueueing errored packet 6281 at time 2025
Reenqueueing errored packet 6292 at time 2028
Reenqueueing errored packet 6260 at time 2028
Additional hops: 3870
Adding flit 6331 as NACK at time 2030
Reenqueueing errored packet 6295 at time 2031
Reenqueueing errored packet 6153 at time 2033
Additional hops: 3879
Adding flit 6343 as NACK at time 2037
Reenqueueing errored packet 6313 at time 2041
Additional hops: 3886
Adding flit 6378 as NACK at time 2041
Reenqueueing errored packet 6302 at time 2043
Additional hops: 3895
Adding flit 6366 as NACK at time 2044
Reenqueueing errored packet 6331 at time 2047
Additional hops: 3898
Adding flit 6456 as NACK at time 2048
Additional hops: 3908
Adding flit 6396 as NACK at time 2054
Additional hops: 3919
Adding flit 6381 as NACK at time 2054
Reenqueueing errored packet 6456 at time 2055
Reenqueueing errored packet 6378 at time 2056
Reenqueueing errored packet 6343 at time 2056
Additional hops: 3923
Adding flit 6485 as NACK at time 2057
Reenqueueing errored packet 6366 at time 2063
Reenqueueing errored packet 6485 at time 2066
Additional hops: 3928
Adding flit 6515 as NACK at time 2070
Additional hops: 3935
Adding flit 6506 as NACK at time 2073
Reenqueueing errored packet 6396 at time 2075
Additional hops: 3945
Adding flit 6487 as NACK at time 2076
Reenqueueing errored packet 6381 at time 2077
Reenqueueing errored packet 6515 at time 2081
Additional hops: 3954
Adding flit 6532 as NACK at time 2086
Reenqueueing errored packet 6506 at time 2088
Additional hops: 3963
Adding flit 6537 as NACK at time 2089
Additional hops: 3968
Adding flit 6589 as NACK at time 2091
Additional hops: 3978
Adding flit 6541 as NACK at time 2092
Reenqueueing errored packet 6487 at time 2097
Reenqueueing errored packet 6589 at time 2102
Additional hops: 3984
Adding flit 6617 as NACK at time 2103
Reenqueueing errored packet 6532 at time 2105
Additional hops: 3990
Adding flit 6622 as NACK at time 2105
Reenqueueing errored packet 6537 at time 2108
Reenqueueing errored packet 6541 at time 2113
Additional hops: 3998
Adding flit 6635 as NACK at time 2113
Additional hops: 4003
Adding flit 6657 as NACK at time 2115
Reenqueueing errored packet 6617 at time 2116
Reenqueueing errored packet 6622 at time 2118
Reenqueueing errored packet 6657 at time 2126
Additional hops: 4009
Adding flit 6687 as NACK at time 2127
Additional hops: 4015
Adding flit 6693 as NACK at time 2128
Reenqueueing errored packet 6635 at time 2130
Additional hops: 4023
Adding flit 6677 as NACK at time 2131
Additional hops: 4041
Adding flit 6532 as NACK at time 2134
Additional hops: 4047
Adding flit 6711 as NACK at time 2135
Additional hops: 4051
Adding flit 6740 as NACK at time 2136
Additional hops: 4069
Adding flit 6537 as NACK at time 2137
Reenqueueing errored packet 6687 at time 2140
Reenqueueing errored packet 6693 at time 2141
Reenqueueing errored packet 6740 at time 2145
Additional hops: 4089
Adding flit 6541 as NACK at time 2146
Reenqueueing errored packet 6711 at time 2148
Reenqueueing errored packet 6677 at time 2148
Additional hops: 4099
Adding flit 6724 as NACK at time 2151
Additional hops: 4107
Adding flit 6787 as NACK at time 2165
Additional hops: 4113
Adding flit 6809 as NACK at time 2166
Additional hops: 4116
Adding flit 6855 as NACK at time 2167
Additional hops: 4122
Adding flit 6826 as NACK at time 2168
Additional hops: 4129
Adding flit 6811 as NACK at time 2168
Additional hops: 4135
Adding flit 6837 as NACK at time 2170
Reenqueueing errored packet 6532 at time 2171
Additional hops: 4141
Adding flit 6842 as NACK at time 2171
Additional hops: 4144
Adding flit 6879 as NACK at time 2171
Reenqueueing errored packet 6724 at time 2172
Reenqueueing errored packet 6855 at time 2174
Reenqueueing errored packet 6537 at time 2174
Reenqueueing errored packet 6879 at time 2178
Reenqueueing errored packet 6809 at time 2179
Additional hops: 4151
Adding flit 6859 as NACK at time 2180
Reenqueueing errored packet 6826 at time 2181
Reenqueueing errored packet 6787 at time 2182
Reenqueueing errored packet 6837 at time 2183
Reenqueueing errored packet 6811 at time 2183
Reenqueueing errored packet 6842 at time 2184
Reenqueueing errored packet 6541 at time 2187
Additional hops: 4153
Adding flit 6934 as NACK at time 2187
Reenqueueing errored packet 6934 at time 2192
Reenqueueing errored packet 6859 at time 2195
Additional hops: 4159
Adding flit 6937 as NACK at time 2199
Additional hops: 4171
Adding flit 6826 as NACK at time 2201
Additional hops: 4177
Adding flit 6944 as NACK at time 2201
Additional hops: 4181
Adding flit 6968 as NACK at time 2203
Additional hops: 4189
Adding flit 6927 as NACK at time 2203
Additional hops: 4192
Adding flit 6989 as NACK at time 2208
Additional hops: 4201
Adding flit 6938 as NACK at time 2209
Additional hops: 4209
Adding flit 6954 as NACK at time 2211
Reenqueueing errored packet 6968 at time 2212
Reenqueueing errored packet 6937 at time 2212
Reenqueueing errored packet 6944 at time 2214
Reenqueueing errored packet 6989 at time 2215
Additional hops: 4218
Adding flit 6959 as NACK at time 2215
Additional hops: 4227
Adding flit 6960 as NACK at time 2215
Additional hops: 4238
Adding flit 6949 as NACK at time 2219
Reenqueueing errored packet 6927 at time 2220
Additional hops: 4245
Adding flit 6994 as NACK at time 2222
Additional hops: 4251
Adding flit 7010 as NACK at time 2224
Additional hops: 4260
Adding flit 6984 as NACK at time 2225
Additional hops: 4265
Adding flit 7031 as NACK at time 2225
Reenqueueing errored packet 6826 at time 2226
Reenqueueing errored packet 6954 at time 2228
Reenqueueing errored packet 6938 at time 2228
Reenqueueing errored packet 6960 at time 2234
Reenqueueing errored packet 6959 at time 2234
Additional hops: 4276
Adding flit 7001 as NACK at time 2235
Reenqueueing errored packet 7031 at time 2236
Reenqueueing errored packet 7010 at time 2237
Reenqueueing errored packet 6994 at time 2237
Additional hops: 4279
Adding flit 7112 as NACK at time 2241
Reenqueueing errored packet 6949 at time 2242
Additional hops: 4287
Adding flit 7052 as NACK at time 2243
Reenqueueing errored packet 6984 at time 2244
Additional hops: 4299
Adding flit 7022 as NACK at time 2244
Additional hops: 4306
Adding flit 7078 as NACK at time 2245
Additional hops: 4311
Adding flit 7113 as NACK at time 2247
Reenqueueing errored packet 7112 at time 2248
Additional hops: 4321
Adding flit 7056 as NACK at time 2249
Additional hops: 4326
Adding flit 7136 as NACK at time 2253
Additional hops: 4330
Adding flit 7160 as NACK at time 2256
Additional hops: 4336
Adding flit 7137 as NACK at time 2257
Reenqueueing errored packet 7113 at time 2258
Reenqueueing errored packet 7001 at time 2258
Reenqueueing errored packet 7078 at time 2260
Reenqueueing errored packet 7052 at time 2260
Additional hops: 4342
Adding flit 7147 as NACK at time 2260
Additional hops: 4350
Adding flit 7128 as NACK at time 2261
Additional hops: 4359
Adding flit 7117 as NACK at time 2261
Additional hops: 4366
Adding flit 7140 as NACK at time 2261
Additional hops: 4384
Adding flit 6959 as NACK at time 2263
Reenqueueing errored packet 7136 at time 2264
Additional hops: 4394
Adding flit 7120 as NACK at time 2264
Reenqueueing errored packet 7160 at time 2265
Additional hops: 4407
Adding flit 7099 as NACK at time 2268
Reenqueueing errored packet 7022 at time 2269
Reenqueueing errored packet 7137 at time 2270
Reenqueueing errored packet 7056 at time 2270
Additional hops: 4418
Adding flit 7135 as NACK at time 2271
Reenqueueing errored packet 7147 at time 2273
Additional hops: 4429
Adding flit 7142 as NACK at time 2274
Additional hops: 4434
Adding flit 7209 as NACK at time 2275
Reenqueueing errored packet 7140 at time 2276
Reenqueueing errored packet 7128 at time 2278
Reenqueueing errored packet 7117 at time 2280
Additional hops: 4442
Adding flit 7160 as NACK at time 2280
Additional hops: 4448
Adding flit 7225 as NACK at time 2284
Reenqueueing errored packet 7120 at time 2285
Additional hops: 4450
Adding flit 7267 as NACK at time 2285
Reenqueueing errored packet 7209 at time 2286
Additional hops: 4463
Adding flit 7176 as NACK at time 2287
Reenqueueing errored packet 7267 at time 2290
Additional hops: 4485
Adding flit 7001 as NACK at time 2293
Reenqueueing errored packet 7135 at time 2294
Reenqueueing errored packet 7099 at time 2295
Additional hops: 4491
Adding flit 7258 as NACK at time 2295
Reenqueueing errored packet 7225 at time 2297
Reenqueueing errored packet 7160 at time 2297
Reenqueueing errored packet 7142 at time 2297
Reenqueueing errored packet 6959 at time 2300
Additional hops: 4494
Adding flit 7307 as NACK at time 2300
Additional hops: 4499
Adding flit 7298 as NACK at time 2303
Additional hops: 4507
Adding flit 7266 as NACK at time 2303
Reenqueueing errored packet 7307 at time 2307
Reenqueueing errored packet 7258 at time 2308
Additional hops: 4514
Adding flit 7305 as NACK at time 2311
Additional hops: 4522
Adding flit 7304 as NACK at time 2313
Reenqueueing errored packet 7298 at time 2314
Reenqueueing errored packet 7176 at time 2314
Additional hops: 4533
Adding flit 7284 as NACK at time 2316
Reenqueueing errored packet 7266 at time 2320
Additional hops: 4541
Adding flit 7324 as NACK at time 2321
Reenqueueing errored packet 7305 at time 2326
Additional hops: 4563
Adding flit 7135 as NACK at time 2329
Reenqueueing errored packet 7304 at time 2330
Reenqueueing errored packet 7324 at time 2338
Reenqueueing errored packet 7001 at time 2338
Additional hops: 4570
Adding flit 7394 as NACK at time 2338
Reenqueueing errored packet 7284 at time 2339
Additional hops: 4586
Adding flit 7266 as NACK at time 2346
Additional hops: 4591
Adding flit 7456 as NACK at time 2350
Reenqueueing errored packet 7394 at time 2353
Additional hops: 4593
Adding flit 7509 as NACK at time 2357
Additional hops: 4605
Adding flit 7408 as NACK at time 2357
Reenqueueing errored packet 7456 at time 2361
Reenqueueing errored packet 7509 at time 2362
Additional hops: 4612
Adding flit 7476 as NACK at time 2362
Additional hops: 4620
Adding flit 7473 as NACK at time 2363
Additional hops: 4636
Adding flit 7324 as NACK at time 2364
Additional hops: 4641
Adding flit 7529 as NACK at time 2371
Additional hops: 4648
Adding flit 7512 as NACK at time 2372
Reenqueueing errored packet 7135 at time 2374
Reenqueueing errored packet 7476 at time 2377
Additional hops: 4658
Adding flit 7456 as NACK at time 2378
Reenqueueing errored packet 7266 at time 2379
Reenqueueing errored packet 7473 at time 2380
Reenqueueing errored packet 7529 at time 2382
Reenqueueing errored packet 7408 at time 2382
Additional hops: 4661
Adding flit 7595 as NACK at time 2384
Additional hops: 4663
Adding flit 7611 as NACK at time 2386
Reenqueueing errored packet 7512 at time 2387
Additional hops: 4670
Adding flit 7565 as NACK at time 2388
Reenqueueing errored packet 7611 at time 2391
Reenqueueing errored packet 7595 at time 2391
Additional hops: 4680
Adding flit 7550 as NACK at time 2394
Reenqueueing errored packet 7324 at time 2397
Reenqueueing errored packet 7456 at time 2399
Reenqueueing errored packet 7565 at time 2403
Additional hops: 4691
Adding flit 7582 as NACK at time 2404
Additional hops: 4695
Adding flit 7675 as NACK at time 2414
Reenqueueing errored packet 7550 at time 2415
Additional hops: 4699
Adding flit 7688 as NACK at time 2417
Additional hops: 4706
Adding flit 7662 as NACK at time 2419
Reenqueueing errored packet 7675 at time 2423
Reenqueueing errored packet 7688 at time 2426
Additional hops: 4720
Adding flit 7565 as NACK at time 2426
Reenqueueing errored packet 7582 at time 2427
Additional hops: 4723
Adding flit 7742 as NACK at time 2428
Additional hops: 4732
Adding flit 7685 as NACK at time 2431
Reenqueueing errored packet 7662 at time 2434
Reenqueueing errored packet 7742 at time 2435
Additional hops: 4741
Adding flit 7697 as NACK at time 2435
Additional hops: 4745
Adding flit 7763 as NACK at time 2436
Additional hops: 4756
Adding flit 7682 as NACK at time 2437
Additional hops: 4761
Adding flit 7758 as NACK at time 2438
Additional hops: 4769
Adding flit 7740 as NACK at time 2442
Additional hops: 4775
Adding flit 7757 as NACK at time 2443
Reenqueueing errored packet 7763 at time 2445
Additional hops: 4779
Adding flit 7805 as NACK at time 2446
Additional hops: 4788
Adding flit 7747 as NACK at time 2447
Additional hops: 4795
Adding flit 7767 as NACK at time 2447
Reenqueueing errored packet 7758 at time 2449
Reenqueueing errored packet 7685 at time 2450
Reenqueueing errored packet 7697 at time 2454
Reenqueueing errored packet 7805 at time 2455
Reenqueueing errored packet 7565 at time 2455
Reenqueueing errored packet 7757 at time 2456
Reenqueueing errored packet 7740 at time 2459
Additional hops: 4801
Adding flit 7823 as NACK at time 2459
Reenqueueing errored packet 7682 at time 2460
Reenqueueing errored packet 7767 at time 2462
Reenqueueing errored packet 7747 at time 2466
Reenqueueing errored packet 7823 at time 2472
Additional hops: 4807
Adding flit 7864 as NACK at time 2473
Additional hops: 4816
Adding flit 7862 as NACK at time 2481
Reenqueueing errored packet 7864 at time 2486
Additional hops: 4825
Adding flit 7874 as NACK at time 2486
Additional hops: 4831
Adding flit 7912 as NACK at time 2487
Additional hops: 4835
Adding flit 7945 as NACK at time 2490
Additional hops: 4853
Adding flit 7747 as NACK at time 2496
Additional hops: 4858
Adding flit 7962 as NACK at time 2498
Reenqueueing errored packet 7945 at time 2499
Reenqueueing errored packet 7912 at time 2500
Reenqueueing errored packet 7862 at time 2500
Reenqueueing errored packet 7874 at time 2505
Reenqueueing errored packet 7962 at time 2509
Additional hops: 4865
Adding flit 8019 as NACK at time 2519
Additional hops: 4873
Adding flit 8013 as NACK at time 2520
Additional hops: 4887
Adding flit 7960 as NACK at time 2525
Additional hops: 4905
Adding flit 7862 as NACK at time 2529
Additional hops: 4909
Adding flit 8087 as NACK at time 2529
Reenqueueing errored packet 7747 at time 2533
Reenqueueing errored packet 8019 at time 2534
Reenqueueing errored packet 8013 at time 2537
Additional hops: 4924
Adding flit 7996 as NACK at time 2537
Additional hops: 4932
Adding flit 8067 as NACK at time 2537
Reenqueueing errored packet 8087 at time 2538
Additional hops: 4940
Adding flit 8077 as NACK at time 2538
Additional hops: 4944
Adding flit 8114 as NACK at time 2538
Reenqueueing errored packet 8114 at time 2547
Additional hops: 4948
Adding flit 8147 as NACK at time 2547
Additional hops: 4958
Adding flit 8092 as NACK at time 2548
Additional hops: 4965
Adding flit 8133 as NACK at time 2552
Reenqueueing errored packet 8067 at time 2554
Reenqueueing errored packet 7960 at time 2554
Additional hops: 4973
Adding flit 8127 as NACK at time 2554
Reenqueueing errored packet 8077 at time 2555
Reenqueueing errored packet 8147 at time 2556
Additional hops: 4975
Adding flit 8192 as NACK at time 2557
Additional hops: 4985
Adding flit 8131 as NACK at time 2561
Reenqueueing errored packet 8192 at time 2562
Reenqueueing errored packet 7862 at time 2566
Reenqueueing errored packet 8133 at time 2567
Additional hops: 4995
Adding flit 8153 as NACK at time 2567
Reenqueueing errored packet 7996 at time 2568
Reenqueueing errored packet 8092 at time 2569
Reenqueueing errored packet 8127 at time 2571
Additional hops: 5003
Adding flit 8181 as NACK at time 2571
Additional hops: 5008
Adding flit 8228 as NACK at time 2575
Additional hops: 5016
Adding flit 8204 as NACK at time 2579
Reenqueueing errored packet 8131 at time 2582
Additional hops: 5032
Adding flit 8077 as NACK at time 2582
Reenqueueing errored packet 8228 at time 2586
Additional hops: 5040
Adding flit 8231 as NACK at time 2586
Reenqueueing errored packet 8181 at time 2588
Reenqueueing errored packet 8153 at time 2588
Additional hops: 5050
Adding flit 8217 as NACK at time 2588
Additional hops: 5055
Adding flit 8279 as NACK at time 2589
Additional hops: 5069
Adding flit 8133 as NACK at time 2590
Reenqueueing errored packet 8204 at time 2596
Additional hops: 5071
Adding flit 8337 as NACK at time 2598
Reenqueueing errored packet 8279 at time 2600
Reenqueueing errored packet 8337 at time 2603
Reenqueueing errored packet 8231 at time 2603
Additional hops: 5075
Adding flit 8348 as NACK at time 2608
Reenqueueing errored packet 8217 at time 2609
Additional hops: 5086
Adding flit 8284 as NACK at time 2609
Additional hops: 5090
Adding flit 8351 as NACK at time 2609
Reenqueueing errored packet 8077 at time 2615
Reenqueueing errored packet 8348 at time 2617
Reenqueueing errored packet 8351 at time 2618
Reenqueueing errored packet 8133 at time 2619
Additional hops: 5099
Adding flit 8343 as NACK at time 2621
Additional hops: 5108
Adding flit 8353 as NACK at time 2624
Reenqueueing errored packet 8284 at time 2632
Additional hops: 5116
Adding flit 8387 as NACK at time 2636
Additional hops: 5130
Adding flit 8346 as NACK at time 2638
Reenqueueing errored packet 8343 at time 2640
Additional hops: 5139
Adding flit 8390 as NACK at time 2640
Reenqueueing errored packet 8353 at time 2643
Additional hops: 5147
Adding flit 8425 as NACK at time 2649
Additional hops: 5153
Adding flit 8436 as NACK at time 2649
Additional hops: 5164
Adding flit 8404 as NACK at time 2650
Reenqueueing errored packet 8387 at time 2653
Reenqueueing errored packet 8390 at time 2659
Reenqueueing errored packet 8436 at time 2662
Additional hops: 5169
Adding flit 8491 as NACK at time 2662
Reenqueueing errored packet 8425 at time 2666
Additional hops: 5177
Adding flit 8480 as NACK at time 2666
Reenqueueing errored packet 8346 at time 2667
Additional hops: 5199
Adding flit 8284 as NACK at time 2667
Reenqueueing errored packet 8491 at time 2673
Reenqueueing errored packet 8404 at time 2673
Additional hops: 5209
Adding flit 8481 as NACK at time 2674
Reenqueueing errored packet 8480 at time 2683
Additional hops: 5216
Adding flit 8561 as NACK at time 2688
Additional hops: 5229
Adding flit 8516 as NACK at time 2692
Additional hops: 5234
Adding flit 8594 as NACK at time 2693
Reenqueueing errored packet 8481 at time 2695
Additional hops: 5241
Adding flit 8576 as NACK at time 2695
Additional hops: 5251
Adding flit 8559 as NACK at time 2697
Additional hops: 5258
Adding flit 8606 as NACK at time 2702
Reenqueueing errored packet 8561 at time 2703
Reenqueueing errored packet 8594 at time 2704
Additional hops: 5266
Adding flit 8614 as NACK at time 2707
Additional hops: 5288
Adding flit 8404 as NACK at time 2708
Reenqueueing errored packet 8576 at time 2710
Reenqueueing errored packet 8284 at time 2712
Additional hops: 5297
Adding flit 8620 as NACK at time 2712
Reenqueueing errored packet 8606 at time 2717
Reenqueueing errored packet 8559 at time 2718
Reenqueueing errored packet 8516 at time 2719
Additional hops: 5309
Adding flit 8622 as NACK at time 2722
Reenqueueing errored packet 8614 at time 2724
Reenqueueing errored packet 8620 at time 2731
Additional hops: 5317
Adding flit 8683 as NACK at time 2733
Additional hops: 5321
Adding flit 8732 as NACK at time 2738
Additional hops: 5325
Adding flit 8734 as NACK at time 2738
Additional hops: 5328
Adding flit 8754 as NACK at time 2741
Additional hops: 5335
Adding flit 8715 as NACK at time 2741
Additional hops: 5339
Adding flit 8742 as NACK at time 2741
Additional hops: 5348
Adding flit 8706 as NACK at time 2746
Reenqueueing errored packet 8734 at time 2747
Reenqueueing errored packet 8732 at time 2747
Reenqueueing errored packet 8622 at time 2747
Additional hops: 5352
Adding flit 8765 as NACK at time 2747
Reenqueueing errored packet 8754 at time 2748
Reenqueueing errored packet 8742 at time 2750
Reenqueueing errored packet 8683 at time 2750
Additional hops: 5362
Adding flit 8719 as NACK at time 2751
Reenqueueing errored packet 8404 at time 2753
Reenqueueing errored packet 8765 at time 2756
Reenqueueing errored packet 8715 at time 2756
Additional hops: 5376
Adding flit 8696 as NACK at time 2756
Additional hops: 5384
Adding flit 8753 as NACK at time 2756
Additional hops: 5391
Adding flit 8771 as NACK at time 2759
Reenqueueing errored packet 8706 at time 2765
Reenqueueing errored packet 8719 at time 2772
Reenqueueing errored packet 8753 at time 2773
Reenqueueing errored packet 8771 at time 2774
Additional hops: 5394
Adding flit 8850 as NACK at time 2774
Additional hops: 5402
Adding flit 8808 as NACK at time 2776
Additional hops: 5409
Adding flit 8820 as NACK at time 2776
Additional hops: 5423
Adding flit 8715 as NACK at time 2779
Reenqueueing errored packet 8850 at time 2781
Additional hops: 5431
Adding flit 8837 as NACK at time 2784
Reenqueueing errored packet 8696 at time 2785
Reenqueueing errored packet 8820 at time 2791
Reenqueueing errored packet 8808 at time 2793
Additional hops: 5443
Adding flit 8828 as NACK at time 2793
Additional hops: 5448
Adding flit 8919 as NACK at time 2800
Reenqueueing errored packet 8837 at time 2801
Reenqueueing errored packet 8715 at time 2808
Reenqueueing errored packet 8919 at time 2811
Additional hops: 5455
Adding flit 8951 as NACK at time 2815
Reenqueueing errored packet 8828 at time 2818
Additional hops: 5457
Adding flit 9008 as NACK at time 2818
Additional hops: 5459
Adding flit 9010 as NACK at time 2818
Additional hops: 5475
Adding flit 8808 as NACK at time 2819
Additional hops: 5479
Adding flit 8996 as NACK at time 2820
Additional hops: 5489
Adding flit 8946 as NACK at time 2821
Reenqueueing errored packet 9010 at time 2823
Reenqueueing errored packet 9008 at time 2823
Reenqueueing errored packet 8996 at time 2829
Reenqueueing errored packet 8951 at time 2830
Additional hops: 5494
Adding flit 9036 as NACK at time 2837
Additional hops: 5499
Adding flit 9037 as NACK at time 2837
Additional hops: 5506
Adding flit 9028 as NACK at time 2840
Additional hops: 5513
Adding flit 9026 as NACK at time 2840
Reenqueueing errored packet 8946 at time 2842
Additional hops: 5518
Adding flit 9067 as NACK at time 2846
Reenqueueing errored packet 9037 at time 2848
Reenqueueing errored packet 9036 at time 2848
Reenqueueing errored packet 8808 at time 2852
Additional hops: 5525
Adding flit 9065 as NACK at time 2852
Additional hops: 5533
Adding flit 9060 as NACK at time 2854
Reenqueueing errored packet 9026 at time 2855
Reenqueueing errored packet 9028 at time 2855
Additional hops: 5540
Adding flit 9077 as NACK at time 2855
Additional hops: 5546
Adding flit 9082 as NACK at time 2855
Reenqueueing errored packet 9067 at time 2857
Additional hops: 5555
Adding flit 9074 as NACK at time 2860
Reenqueueing errored packet 9065 at time 2867
Reenqueueing errored packet 9082 at time 2868
Reenqueueing errored packet 9077 at time 2870
Reenqueueing errored packet 9060 at time 2871
Additional hops: 5564
Adding flit 9114 as NACK at time 2876
Reenqueueing errored packet 9074 at time 2879
Additional hops: 5572
Adding flit 9154 as NACK at time 2884
Additional hops: 5586
Adding flit 9065 as NACK at time 2890
Additional hops: 5590
Adding flit 9230 as NACK at time 2893
Reenqueueing errored packet 9114 at time 2895
Additional hops: 5591
Adding flit 9281 as NACK at time 2899
Reenqueueing errored packet 9154 at time 2901
Reenqueueing errored packet 9281 at time 2902
Reenqueueing errored packet 9230 at time 2902
Additional hops: 5600
Adding flit 9204 as NACK at time 2902
Additional hops: 5608
Adding flit 9232 as NACK at time 2905
Additional hops: 5613
Adding flit 9277 as NACK at time 2910
Additional hops: 5620
Adding flit 9276 as NACK at time 2916
Reenqueueing errored packet 9065 at time 2919
Reenqueueing errored packet 9277 at time 2921
Reenqueueing errored packet 9204 at time 2921
Reenqueueing errored packet 9232 at time 2922
Additional hops: 5638
Adding flit 9114 as NACK at time 2924
Additional hops: 5647
Adding flit 9295 as NACK at time 2929
Reenqueueing errored packet 9276 at time 2931
Additional hops: 5657
Adding flit 9342 as NACK at time 2942
Additional hops: 5659
Adding flit 9419 as NACK at time 2943
Additional hops: 5662
Adding flit 9414 as NACK at time 2945
Additional hops: 5666
Adding flit 9408 as NACK at time 2946
Reenqueueing errored packet 9419 at time 2948
Reenqueueing errored packet 9295 at time 2948
Additional hops: 5684
Adding flit 9204 as NACK at time 2950
Reenqueueing errored packet 9414 at time 2952
Additional hops: 5690
Adding flit 9409 as NACK at time 2953
Reenqueueing errored packet 9408 at time 2955
Additional hops: 5694
Adding flit 9443 as NACK at time 2957
Reenqueueing errored packet 9114 at time 2961
Reenqueueing errored packet 9342 at time 2963
Reenqueueing errored packet 9443 at time 2966
Reenqueueing errored packet 9409 at time 2966
Additional hops: 5696
Adding flit 9494 as NACK at time 2969
Additional hops: 5699
Adding flit 9492 as NACK at time 2971
Additional hops: 5703
Adding flit 9488 as NACK at time 2973
Reenqueueing errored packet 9494 at time 2974
Reenqueueing errored packet 9492 at time 2978
Additional hops: 5709
Adding flit 9490 as NACK at time 2979
Additional hops: 5717
Adding flit 9473 as NACK at time 2980
Reenqueueing errored packet 9488 at time 2982
Additional hops: 5726
Adding flit 9481 as NACK at time 2984
Reenqueueing errored packet 9204 at time 2987
Additional hops: 5737
Adding flit 9474 as NACK at time 2989
Additional hops: 5748
Adding flit 9482 as NACK at time 2991
Reenqueueing errored packet 9490 at time 2992
Reenqueueing errored packet 9473 at time 2997
Additional hops: 5755
Adding flit 9538 as NACK at time 3000
Reenqueueing errored packet 9481 at time 3003
Additional hops: 5759
Adding flit 9593 as NACK at time 3011
Reenqueueing errored packet 9474 at time 3012
Reenqueueing errored packet 9482 at time 3014
Reenqueueing errored packet 9538 at time 3015
Additional hops: 5768
Adding flit 9570 as NACK at time 3018
Additional hops: 5774
Adding flit 9595 as NACK at time 3018
Additional hops: 5783
Adding flit 9572 as NACK at time 3019
Reenqueueing errored packet 9593 at time 3020
Additional hops: 5790
Adding flit 9600 as NACK at time 3022
Additional hops: 5806
Adding flit 9473 as NACK at time 3023
Additional hops: 5808
Adding flit 9668 as NACK at time 3025
Reenqueueing errored packet 9668 at time 3030
Reenqueueing errored packet 9595 at time 3031
Additional hops: 5814
Adding flit 9644 as NACK at time 3031
Additional hops: 5820
Adding flit 9656 as NACK at time 3033
Additional hops: 5829
Adding flit 9629 as NACK at time 3035
Reenqueueing errored packet 9600 at time 3037
Reenqueueing errored packet 9570 at time 3037
Reenqueueing errored packet 9572 at time 3038
Additional hops: 5838
Adding flit 9640 as NACK at time 3039
Reenqueueing errored packet 9644 at time 3044
Reenqueueing errored packet 9656 at time 3046
Additional hops: 5848
Adding flit 9662 as NACK at time 3046
Additional hops: 5860
Adding flit 9595 as NACK at time 3051
Additional hops: 5867
Adding flit 9705 as NACK at time 3053
Additional hops: 5871
Adding flit 9735 as NACK at time 3053
Reenqueueing errored packet 9629 at time 3054
Reenqueueing errored packet 9473 at time 3056
Additional hops: 5875
Adding flit 9751 as NACK at time 3057
Reenqueueing errored packet 9640 at time 3058
Additional hops: 5881
Adding flit 9731 as NACK at time 3058
Additional hops: 5892
Adding flit 9688 as NACK at time 3060
Additional hops: 5897
Adding flit 9747 as NACK at time 3060
Additional hops: 5904
Adding flit 9724 as NACK at time 3061
[...]
Reenqueueing errored packet 191165 at time 59869
Additional hops: 114768
Adding flit 191309 as NACK at time 59869
Reenqueueing errored packet 191242 at time 59871
Additional hops: 114777
Adding flit 191269 as NACK at time 59871
Additional hops: 114782
Adding flit 191300 as NACK at time 59872
Reenqueueing errored packet 191232 at time 59873
Additional hops: 114790
Adding flit 191290 as NACK at time 59875
Reenqueueing errored packet 191309 at time 59876
Additional hops: 114806
Adding flit 191180 as NACK at time 59881
Additional hops: 114813
Adding flit 191311 as NACK at time 59881
Reenqueueing errored packet 191300 at time 59883
Reenqueueing errored packet 191229 at time 59887
Additional hops: 114819
Adding flit 191337 as NACK at time 59889
Reenqueueing errored packet 191269 at time 59890
Additional hops: 114827
Adding flit 191322 as NACK at time 59890
Reenqueueing errored packet 191290 at time 59892
Reenqueueing errored packet 191311 at time 59896
Additional hops: 114831
Adding flit 191392 as NACK at time 59898
Additional hops: 114837
Adding flit 191365 as NACK at time 59899
Reenqueueing errored packet 191337 at time 59902
Reenqueueing errored packet 191392 at time 59907
Reenqueueing errored packet 191322 at time 59907
Reenqueueing errored packet 191365 at time 59912
Additional hops: 114845
Adding flit 191399 as NACK at time 59913
Additional hops: 114851
Adding flit 191414 as NACK at time 59913
Reenqueueing errored packet 191180 at time 59914
Additional hops: 114855
Adding flit 191441 as NACK at time 59916
Additional hops: 114860
Adding flit 191448 as NACK at time 59920
Additional hops: 114864
Adding flit 191464 as NACK at time 59922
Reenqueueing errored packet 191441 at time 59925
Additional hops: 114873
Adding flit 191422 as NACK at time 59925
Additional hops: 114880
Adding flit 191444 as NACK at time 59925
Reenqueueing errored packet 191414 at time 59926
Reenqueueing errored packet 191399 at time 59930
Reenqueueing errored packet 191464 at time 59931
Reenqueueing errored packet 191448 at time 59931
Additional hops: 114886
Adding flit 191481 as NACK at time 59932
Reenqueueing errored packet 191444 at time 59940
Reenqueueing errored packet 191422 at time 59944
Reenqueueing errored packet 191481 at time 59945
Additional hops: 114894
Adding flit 191524 as NACK at time 59951
Additional hops: 114903
Adding flit 191530 as NACK at time 59956
Additional hops: 114919
Adding flit 191399 as NACK at time 59956
Additional hops: 114928
Adding flit 191560 as NACK at time 59964
Additional hops: 114939
Adding flit 191536 as NACK at time 59964
Additional hops: 114947
Adding flit 191574 as NACK at time 59965
Reenqueueing errored packet 191524 at time 59968
Additional hops: 114956
Adding flit 191580 as NACK at time 59969
Additional hops: 114958
Adding flit 191652 as NACK at time 59970
Additional hops: 114968
Adding flit 191579 as NACK at time 59971
Reenqueueing errored packet 191652 at time 59975
Reenqueueing errored packet 191530 at time 59975
Additional hops: 114975
Adding flit 191624 as NACK at time 59976
Additional hops: 114981
Adding flit 191638 as NACK at time 59977
Additional hops: 114988
Adding flit 191634 as NACK at time 59979
Reenqueueing errored packet 191574 at time 59982
Reenqueueing errored packet 191560 at time 59983
Additional hops: 114999
Adding flit 191607 as NACK at time 59983
Additional hops: 115003
Adding flit 191652 as NACK at time 59983
Reenqueueing errored packet 191536 at time 59987
Reenqueueing errored packet 191580 at time 59988
Additional hops: 115006
Adding flit 191701 as NACK at time 59988
Reenqueueing errored packet 191399 at time 59989
Reenqueueing errored packet 191638 at time 59990
Additional hops: 115014
Adding flit 191654 as NACK at time 59990
Reenqueueing errored packet 191624 at time 59991
Reenqueueing errored packet 191652 at time 59992
Reenqueueing errored packet 191579 at time 59992
Additional hops: 115016
Adding flit 191728 as NACK at time 59993
Reenqueueing errored packet 191634 at time 59994
Additional hops: 115032
Adding flit 191524 as NACK at time 59994
Reenqueueing errored packet 191701 at time 59995
Reenqueueing errored packet 191728 at time 59998
Class 0:
Packet latency average = 23.9326
	minimum = 5
	maximum = 469
Network latency average = 20.8576
	minimum = 5
	maximum = 49
Slowest packet = 96013
Flit latency average = 20.8615
	minimum = 5
	maximum = 49
Slowest flit = 126799
Fragmentation average = 0
	minimum = 0
	maximum = 0
Injected packet rate average = 0.0536484
	minimum = 0.0508 (at node 21)
	maximum = 0.0581 (at node 63)
Accepted packet rate average = 0.0536448
	minimum = 0.0501 (at node 37)
	maximum = 0.0575 (at node 8)
Injected flit rate average = 0.0536484
	minimum = 0.0508 (at node 21)
	maximum = 0.0581 (at node 63)
Accepted flit rate average= 0.0536448
	minimum = 0.0501 (at node 37)
	maximum = 0.0575 (at node 8)
Injected packet length average = 1
Accepted packet length average = 1
Total in-flight flits = 116 (103 measured)
latency change    = 0.000995641
throughput change = 0.000519428
Draining all recorded packets ...
Reenqueueing errored packet 191607 at time 60006
Reenqueueing errored packet 191654 at time 60007
Reenqueueing errored packet 191524 at time 60027
60073 | node29 | Enqueuing flit 192022 (packet 192022) at time 60073.
60073 | traffic_manager | Finding output VC for flit 192022:
60073 | traffic_manager |   Selected output VC 0.
60073 | network_0/router_3_5 | Adding VC range [0,1] at output port 1 for flit 192022 (input port 4, destination 44).
60073 | node29 | Generating lookahead routing info for flit 192022.
60073 | node29 | Injecting flit 192022 into subnet 0 at time 60073 with priority 0.
60074 | network_0/network_0_fchan_ingress29 | Beginning channel traversal for flit 192022 with delay 1.
60074 | network_0/network_0_fchan_ingress29 | Completed channel traversal for flit 192022.
60075 | network_0/router_3_5 | Received flit 192022 from channel at input 4.
60075 | network_0/router_3_5 | Adding flit 192022 to VC 0 at input 4 (state: idle, empty).
60075 | network_0/router_3_5 | Using precomputed lookahead routing information for VC 0 at input 4 (front: 192022).
60075 | network_0/router_3_5/buf_4/vc_0 | Changing state from idle to vc_alloc.
60075 | network_0/router_3_5 | Beginning VC allocation for VC 0 at input 4 (front: 192022).
60075 | network_0/router_3_5 |   Requesting VC 0 at output 1 (in_pri: 0, out_pri: 0).
60075 | network_0/router_3_5 |   Requesting VC 1 at output 1 (in_pri: 0, out_pri: 0).
60075 | network_0/router_3_5/vc_allocator | Input requests = [ 4 -> [ 6@0 7@0 ]  7 -> [ 4@0 5@0 ]  8 -> [ 2@0 3@0 ]  ], output requests = [ 2 -> [ 8@0 ]  3 -> [ 8@0 ]  4 -> [ 7@0 ]  5 -> [ 7@0 ]  6 -> [ 4@0 ]  7 -> [ 4@0 ]  ].
60075 | network_0/router_3_5/vc_allocator | Input grants = [ 4 -> 7  7 -> 4  8 -> 3  ], output grants = [ 3 -> 8  4 -> 7  7 -> 4  ].
60075 | network_0/router_3_5 | Assigning VC 1 at output 1 to VC 0 at input 4.
60075 | network_0/router_3_5 | Completed VC allocation for VC 0 at input 4 (front: 192022).
60075 | network_0/router_3_5 |   Acquiring assigned VC 1 at output 1.
60075 | network_0/router_3_5/buf_4/vc_0 | Changing state from vc_alloc to active.
60075 | network_0/router_3_5 | Beginning switch allocation for VC 0 at input 4 (front: 192022).
60075 | network_0/router_3_5 |   Requesting output 1.0 (non-spec, pri: 0).
60075 | network_0/router_3_5/sw_allocator | Input requests = [ 2 -> [ 3@0 ]  3 -> [ 2@0 ]  4 -> [ 1@0 ]  ], output requests = [ 1 -> [ 4@0 ]  2 -> [ 3@0 ]  3 -> [ 2@0 ]  ].
60075 | network_0/router_3_5/sw_allocator | Input grants = [ 2 -> 3  3 -> 2  4 -> 1  ], output grants = [ 1 -> 4  2 -> 3  3 -> 2  ].
60075 | network_0/router_3_5 | Assigning output 1.0 to VC 0 at input 4.0.
60075 | network_0/router_3_5 | Completed switch allocation for VC 0 at input 4 (front: 192022).
60075 | network_0/router_3_5 |   Scheduling switch connection from input 4.0 to output 1.0.
60075 | network_0/router_3_5 | Updating lookahead routing information for flit 192022.
60075 | network_0/router_3_4 | Adding VC range [0,1] at output port 2 for flit 192022 (input port 0, destination 44).
60076 | network_0/router_3_5 | Beginning crossbar traversal for flit 192022 from input 4.0 to output 1.0.
60076 | network_0/router_3_5 | Completed crossbar traversal for flit 192022 from input 4.0 to output 1.0.
60076 | network_0/router_3_5 | Buffering flit 192022 at output 1.
60076 | network_0/router_3_5 | Sending flit 192022 to channel at output 1.
60077 | network_0/network_0_fchan_117 | Beginning channel traversal for flit 192022 with delay 1.
60077 | network_0/network_0_fchan_117 | Completed channel traversal for flit 192022.
60078 | network_0/router_3_4 | Received flit 192022 from channel at input 0.
60078 | network_0/router_3_4 | Adding flit 192022 to VC 1 at input 0 (state: idle, empty).
60078 | network_0/router_3_4 | Using precomputed lookahead routing information for VC 1 at input 0 (front: 192022).
60078 | network_0/router_3_4/buf_0/vc_1 | Changing state from idle to vc_alloc.
60078 | network_0/router_3_4 | Beginning VC allocation for VC 1 at input 0 (front: 192022).
60078 | network_0/router_3_4 |   Requesting VC 0 at output 2 (in_pri: 0, out_pri: 0).
60078 | network_0/router_3_4 |   Requesting VC 1 at output 2 (in_pri: 0, out_pri: 0).
60078 | network_0/router_3_4/vc_allocator | Input requests = [ 1 -> [ 4@0 5@0 ]  ], output requests = [ 4 -> [ 1@0 ]  5 -> [ 1@0 ]  ].
60078 | network_0/router_3_4/vc_allocator | Input grants = [ 1 -> 4  ], output grants = [ 4 -> 1  ].
60078 | network_0/router_3_4 | Assigning VC 0 at output 2 to VC 1 at input 0.
60078 | network_0/router_3_4 | Completed VC allocation for VC 1 at input 0 (front: 192022).
60078 | network_0/router_3_4 |   Acquiring assigned VC 0 at output 2.
60078 | network_0/router_3_4/buf_0/vc_1 | Changing state from vc_alloc to active.
60078 | network_0/router_3_4 | Beginning switch allocation for VC 1 at input 0 (front: 192022).
60078 | network_0/router_3_4 |   Requesting output 2.0 (non-spec, pri: 0).
60078 | network_0/router_3_4/sw_allocator | Input requests = [ 0 -> [ 2@0 ]  ], output requests = [ 2 -> [ 0@0 ]  ].
60078 | network_0/router_3_4/sw_allocator | Input grants = [ 0 -> 2  ], output grants = [ 2 -> 0  ].
60078 | network_0/router_3_4 | Assigning output 2.0 to VC 1 at input 0.0.
60078 | network_0/router_3_4 | Completed switch allocation for VC 1 at input 0 (front: 192022).
60078 | network_0/router_3_4 |   Scheduling switch connection from input 0.0 to output 2.0.
60078 | network_0/router_3_4 | Updating lookahead routing information for flit 192022.
60078 | network_0/router_4_4 | Adding VC range [0,1] at output port 2 for flit 192022 (input port 3, destination 44).
60079 | network_0/router_3_4 | Beginning crossbar traversal for flit 192022 from input 0.0 to output 2.0.
60079 | network_0/router_3_4 | Completed crossbar traversal for flit 192022 from input 0.0 to output 2.0.
60079 | network_0/router_3_4 | Buffering flit 192022 at output 2.
60079 | network_0/router_3_4 | Sending flit 192022 to channel at output 2.
60080 | network_0/network_0_fchan_114 | Beginning channel traversal for flit 192022 with delay 1.
60080 | network_0/network_0_fchan_114 | Completed channel traversal for flit 192022.
60081 | network_0/router_4_4 | Received flit 192022 from channel at input 3.
60081 | network_0/router_4_4 | Adding flit 192022 to VC 0 at input 3 (state: idle, empty).
60081 | network_0/router_4_4 | Using precomputed lookahead routing information for VC 0 at input 3 (front: 192022).
60081 | network_0/router_4_4/buf_3/vc_0 | Changing state from idle to vc_alloc.
60081 | network_0/router_4_4 | Beginning VC allocation for VC 0 at input 3 (front: 192022).
60081 | network_0/router_4_4 |   Requesting VC 0 at output 2 (in_pri: 0, out_pri: 0).
60081 | network_0/router_4_4 |   Requesting VC 1 at output 2 (in_pri: 0, out_pri: 0).
60081 | network_0/router_4_4/vc_allocator | Input requests = [ 6 -> [ 4@0 5@0 ]  ], output requests = [ 4 -> [ 6@0 ]  5 -> [ 6@0 ]  ].
60081 | network_0/router_4_4/vc_allocator | Input grants = [ 6 -> 5  ], output grants = [ 5 -> 6  ].
60081 | network_0/router_4_4 | Assigning VC 1 at output 2 to VC 0 at input 3.
60081 | network_0/router_4_4 | Completed VC allocation for VC 0 at input 3 (front: 192022).
60081 | network_0/router_4_4 |   Acquiring assigned VC 1 at output 2.
60081 | network_0/router_4_4/buf_3/vc_0 | Changing state from vc_alloc to active.
60081 | network_0/router_4_4 | Beginning switch allocation for VC 0 at input 3 (front: 192022).
60081 | network_0/router_4_4 |   Requesting output 2.0 (non-spec, pri: 0).
60081 | network_0/router_4_4/sw_allocator | Input requests = [ 3 -> [ 2@0 ]  ], output requests = [ 2 -> [ 3@0 ]  ].
60081 | network_0/router_4_4/sw_allocator | Input grants = [ 3 -> 2  ], output grants = [ 2 -> 3  ].
60081 | network_0/router_4_4 | Assigning output 2.0 to VC 0 at input 3.0.
60081 | network_0/router_4_4 | Completed switch allocation for VC 0 at input 3 (front: 192022).
60081 | network_0/router_4_4 |   Scheduling switch connection from input 3.0 to output 2.0.
60081 | network_0/router_4_4 | Updating lookahead routing information for flit 192022.
60081 | network_0/router_5_4 | Adding VC range [0,1] at output port 4 for flit 192022 (input port 3, destination 44).
60082 | network_0/router_4_4 | Beginning crossbar traversal for flit 192022 from input 3.0 to output 2.0.
60082 | network_0/router_4_4 | Completed crossbar traversal for flit 192022 from input 3.0 to output 2.0.
60082 | network_0/router_4_4 | Buffering flit 192022 at output 2.
60082 | network_0/router_4_4 | Sending flit 192022 to channel at output 2.
60083 | network_0/network_0_fchan_146 | Beginning channel traversal for flit 192022 with delay 1.
60083 | network_0/network_0_fchan_146 | Completed channel traversal for flit 192022.
60084 | network_0/router_5_4 | Received flit 192022 from channel at input 3.
60084 | network_0/router_5_4 | Adding flit 192022 to VC 1 at input 3 (state: idle, empty).
60084 | network_0/router_5_4 | Using precomputed lookahead routing information for VC 1 at input 3 (front: 192022).
60084 | network_0/router_5_4/buf_3/vc_1 | Changing state from idle to vc_alloc.
60084 | network_0/router_5_4 | Beginning VC allocation for VC 1 at input 3 (front: 192022).
60084 | network_0/router_5_4 |   Requesting VC 0 at output 4 (in_pri: 0, out_pri: 0).
60084 | network_0/router_5_4 |   Requesting VC 1 at output 4 (in_pri: 0, out_pri: 0).
60084 | network_0/router_5_4/vc_allocator | Input requests = [ 7 -> [ 8@0 9@0 ]  ], output requests = [ 8 -> [ 7@0 ]  9 -> [ 7@0 ]  ].
60084 | network_0/router_5_4/vc_allocator | Input grants = [ 7 -> 8  ], output grants = [ 8 -> 7  ].
60084 | network_0/router_5_4 | Assigning VC 0 at output 4 to VC 1 at input 3.
60084 | network_0/router_5_4 | Completed VC allocation for VC 1 at input 3 (front: 192022).
60084 | network_0/router_5_4 |   Acquiring assigned VC 0 at output 4.
60084 | network_0/router_5_4/buf_3/vc_1 | Changing state from vc_alloc to active.
60084 | network_0/router_5_4 | Beginning switch allocation for VC 1 at input 3 (front: 192022).
60084 | network_0/router_5_4 |   Requesting output 4.0 (non-spec, pri: 0).
60084 | network_0/router_5_4/sw_allocator | Input requests = [ 3 -> [ 4@0 ]  ], output requests = [ 4 -> [ 3@0 ]  ].
60084 | network_0/router_5_4/sw_allocator | Input grants = [ 3 -> 4  ], output grants = [ 4 -> 3  ].
60084 | network_0/router_5_4 | Assigning output 4.0 to VC 1 at input 3.0.
60084 | network_0/router_5_4 | Completed switch allocation for VC 1 at input 3 (front: 192022).
60084 | network_0/router_5_4 |   Scheduling switch connection from input 3.0 to output 4.0.
60085 | network_0/router_5_4 | Beginning crossbar traversal for flit 192022 from input 3.0 to output 4.0.
60085 | network_0/router_5_4 | Completed crossbar traversal for flit 192022 from input 3.0 to output 4.0.
60085 | network_0/router_5_4 | Buffering flit 192022 at output 4.
60085 | network_0/router_5_4 | Sending flit 192022 to channel at output 4.
60086 | network_0/network_0_fchan_egress44 | Beginning channel traversal for flit 192022 with delay 1.
60086 | network_0/network_0_fchan_egress44 | Completed channel traversal for flit 192022.
60087 | node44 | Ejecting flit 192022 (packet 192022) from VC 0.
60087 | node44 | Injecting credit for VC 0 into subnet 0.
60087 | node44 | Retiring flit 192022 (packet 192022, src = 29, dest = 44, hops = 4, flat = 14).
60087 | node44 | Retiring packet 192022 (plat = 14, nlat = 14, frag = 0, src = 29, dest = 44).
Class 0:
Remaining flits: 18401 34286 34308 35002 46905 57133 60604 60933 61739 73106 [...] (94 flits)
Measured flits: 119179 123878 127890 132991 134295 134702 139334 140373 146267 154761 [...] (13 flits)
Class 0:
Remaining flits: 18401 34286 34308 35002 46905 57133 60604 60933 61739 73106 [...] (88 flits)
Measured flits: 119179 123878 127890 132991 134295 134702 139334 140373 146267 154761 [...] (13 flits)
Class 0:
Remaining flits: 18401 34286 34308 35002 46905 57133 60604 60933 61739 73106 [...] (82 flits)
Measured flits: 119179 123878 127890 132991 134295 134702 139334 140373 146267 154761 [...] (13 flits)
Class 0:
Remaining flits: 18401 34286 34308 35002 46905 57133 60604 60933 61739 73106 [...] (102 flits)
Measured flits: 119179 123878 127890 132991 134295 134702 139334 140373 146267 154761 [...] (13 flits)
Class 0:
Remaining flits: 18401 34286 34308 35002 46905 57133 60604 60933 61739 73106 [...] (82 flits)
Measured flits: 119179 123878 127890 132991 134295 134702 139334 140373 146267 154761 [...] (13 flits)
Class 0:
Remaining flits: 18401 34286 34308 35002 46905 57133 60604 60933 61739 73106 [...] (102 flits)
Measured flits: 119179 123878 127890 132991 134295 134702 139334 140373 146267 154761 [...] (13 flits)
Class 0:
Remaining flits: 18401 34286 34308 35002 46905 57133 60604 60933 61739 73106 [...] (98 flits)
Measured flits: 119179 123878 127890 132991 134295 134702 139334 140373 146267 154761 [...] (13 flits)
Draining remaining packets ...
Class 0:
Remaining flits: 18401 34286 34308 35002 46905 57133 60604 60933 61739 73106 [...] (26 flits)
Measured flits: 119179 123878 127890 132991 134295 134702 139334 140373 146267 154761 [...] (13 flits)
WARNING: Possible network deadlock.
Class 0:
Remaining flits: 18401 34286 34308 35002 46905 57133 60604 60933 61739 73106 [...] (26 flits)
Measured flits: 119179 123878 127890 132991 134295 134702 139334 140373 146267 154761 [...] (13 flits)
WARNING: Possible network deadlock.
Class 0:
Remaining flits: 18401 34286 34308 35002 46905 57133 60604 60933 61739 73106 [...] (26 flits)
Measured flits: 119179 123878 127890 132991 134295 134702 139334 140373 146267 154761 [...] (13 flits)
WARNING: Possible network deadlock.
Class 0:
Remaining flits: 18401 34286 34308 35002 46905 57133 60604 60933 61739 73106 [...] (26 flits)
Measured flits: 119179 123878 127890 132991 134295 134702 139334 140373 146267 154761 [...] (13 flits)
Time taken is 68000 cycles
====== Overall Traffic Statistics ======
====== Traffic class 0 ======
Packet latency average = 23.9411 (1 samples)
	minimum = 5 (1 samples)
	maximum = 469 (1 samples)
Network latency average = 20.8609 (1 samples)
	minimum = 5 (1 samples)
	maximum = 49 (1 samples)
Flit latency average = 20.8556 (1 samples)
	minimum = 5 (1 samples)
	maximum = 49 (1 samples)
Fragmentation average = 0 (1 samples)
	minimum = 0 (1 samples)
	maximum = 0 (1 samples)
Injected packet rate average = 0.0536484 (1 samples)
	minimum = 0.0508 (1 samples)
	maximum = 0.0581 (1 samples)
Accepted packet rate average = 0.0536448 (1 samples)
	minimum = 0.0501 (1 samples)
	maximum = 0.0575 (1 samples)
Injected flit rate average = 0.0536484 (1 samples)
	minimum = 0.0508 (1 samples)
	maximum = 0.0581 (1 samples)
Accepted flit rate average = 0.0536448 (1 samples)
	minimum = 0.0501 (1 samples)
	maximum = 0.0575 (1 samples)
Injected packet size average = 1 (1 samples)
Accepted packet size average = 1 (1 samples)
Hops average = 6.79618 (1 samples)
Total run time 69.2492
