BEGIN Configuration File: examples/ecc_mesh88_config_1_0.950_link_1
// $Id$

// Copyright (c) 2007-2015, Trustees of The Leland Stanford Junior University
// All rights reserved.
//
// Redistribution and use in source and binary forms, with or without
// modification, are permitted provided that the following conditions are met:
//
// Redistributions of source code must retain the above copyright notice, this
// list of conditions and the following disclaimer.
// Redistributions in binary form must reproduce the above copyright notice,
// this list of conditions and the following disclaimer in the documentation
// and/or other materials provided with the distribution.
//
// THIS SOFTWARE IS PROVIDED BY THE COPYRIGHT HOLDERS AND CONTRIBUTORS "AS IS"
// AND ANY EXPRESS OR IMPLIED WARRANTIES, INCLUDING, BUT NOT LIMITED TO, THE
// IMPLIED WARRANTIES OF MERCHANTABILITY AND FITNESS FOR A PARTICULAR PURPOSE
// ARE DISCLAIMED. IN NO EVENT SHALL THE COPYRIGHT OWNER OR CONTRIBUTORS BE
// LIABLE FOR ANY DIRECT, INDIRECT, INCIDENTAL, SPECIAL, EXEMPLARY, OR
// CONSEQUENTIAL DAMAGES (INCLUDING, BUT NOT LIMITED TO, PROCUREMENT OF
// SUBSTITUTE GOODS OR SERVICES; LOSS OF USE, DATA, OR PROFITS; OR BUSINESS
// INTERRUPTION) HOWEVER CAUSED AND ON ANY THEORY OF LIABILITY, WHETHER IN
// CONTRACT, STRICT LIABILITY, OR TORT (INCLUDING NEGLIGENCE OR OTHERWISE)
// ARISING IN ANY WAY OUT OF THE USE OF THIS SOFTWARE, EVEN IF ADVISED OF THE
// POSSIBILITY OF SUCH DAMAGE.

// Dragonfly
//




vc_buf_size = 256;


wait_for_tail_credit = 0;

//
// Router architecture
//
vc_allocator = separable_input_first; 
sw_allocator = separable_input_first;
alloc_iters  = 1;

credit_delay   = 2;
routing_delay  = 0;
vc_alloc_delay = 1;
sw_alloc_delay = 1;
st_final_delay = 1;

input_speedup     = 1;
output_speedup    = 1;
internal_speedup  = 2.0;


warmup_periods = 3;
sim_count          = 1;

sample_period  = 10000;  


routing_function = dor;
num_vcs     = 2;

priority = none;
traffic       = uniform; 

injection_rate = 0.95;
packet_size = 1;
injection_rate_uses_flits=1;

topology = mesh;

k  = 8;
n  = 2;

fer = 1;
ecc = link;
correctable = 1;

watch_out=-;
watch_file = watch.txt;

ecc = link;

stats_out = examples/ecc_mesh88_config_1_0.950_link_1.m;

END Configuration File: examples/ecc_mesh88_config_1_0.950_link_1
Requeued flit 38
Requeued flit 132
Requeued flit 3
Requeued flit 89
Requeued flit 278
Requeued flit 250
Requeued flit 317
Requeued flit 197
Requeued flit 79
Requeued flit 137
Requeued flit 83
Requeued flit 241
Requeued flit 57
Requeued flit 308
Requeued flit 366
Requeued flit 242
Requeued flit 243
Requeued flit 494
Requeued flit 67
Requeued flit 1
Requeued flit 521
Requeued flit 464
Requeued flit 548
Requeued flit 437
Requeued flit 245
Requeued flit 557
Requeued flit 218
Requeued flit 348
Requeued flit 664
Requeued flit 247
Requeued flit 105
Requeued flit 539
Requeued flit 687
Requeued flit 77
Requeued flit 653
Requeued flit 599
Requeued flit 68
Requeued flit 33
Requeued flit 810
Requeued flit 504
Requeued flit 445
Requeued flit 462
Requeued flit 552
Requeued flit 923
Requeued flit 872
Requeued flit 449
Requeued flit 419
Requeued flit 171
Requeued flit 306
Requeued flit 582
Requeued flit 420
Requeued flit 253
Requeued flit 816
Requeued flit 175
Requeued flit 665
Requeued flit 292
Requeued flit 728
Requeued flit 783
Requeued flit 1050
Requeued flit 382
Requeued flit 122
Requeued flit 143
Requeued flit 216
Requeued flit 5
Requeued flit 342
Requeued flit 1119
Requeued flit 452
Requeued flit 16
Requeued flit 782
Requeued flit 289
Requeued flit 490
Requeued flit 1275
Requeued flit 757
Requeued flit 460
Requeued flit 182
Requeued flit 425
Requeued flit 844
Requeued flit 780
Requeued flit 484
Requeued flit 1159
Requeued flit 590
Requeued flit 1129
Requeued flit 953
Requeued flit 1086
Requeued flit 1394
Requeued flit 1218
Requeued flit 1353
Requeued flit 1179
Requeued flit 466
Requeued flit 566
Requeued flit 740
Requeued flit 612
Requeued flit 474
Requeued flit 31
Requeued flit 1443
Requeued flit 361
Requeued flit 1517
Requeued flit 1530
Requeued flit 1470
Requeued flit 1509
Requeued flit 1510
Requeued flit 478
Requeued flit 975
Requeued flit 496
Requeued flit 1668
Requeued flit 575
Requeued flit 473
Requeued flit 1319
Requeued flit 442
Requeued flit 1638
Requeued flit 489
Requeued flit 487
Requeued flit 1161
Requeued flit 1234
Requeued flit 49
Requeued flit 315
Requeued flit 440
Requeued flit 1463
Requeued flit 178
Requeued flit 1167
Requeued flit 250
Requeued flit 882
Requeued flit 410
Requeued flit 1521
Requeued flit 491
Requeued flit 155
Requeued flit 979
Requeued flit 1411
Requeued flit 1845
Requeued flit 1185
Requeued flit 1177
Requeued flit 991
Requeued flit 919
Requeued flit 1283
Requeued flit 806
Requeued flit 770
Requeued flit 834
Requeued flit 2005
Requeued flit 1953
Requeued flit 1899
Requeued flit 1907
Requeued flit 2038
Requeued flit 1310
Requeued flit 940
Requeued flit 1160
Requeued flit 608
Requeued flit 1718
Requeued flit 461
Requeued flit 1088
Requeued flit 562
Requeued flit 131
Requeued flit 1025
Requeued flit 191
Requeued flit 603
Requeued flit 1775
Requeued flit 1902
Requeued flit 508
Requeued flit 515
Requeued flit 1351
Requeued flit 1623
Requeued flit 902
Requeued flit 579
Requeued flit 1096
Requeued flit 1166
Requeued flit 1495
Requeued flit 1181
Requeued flit 1801
Requeued flit 1682
Requeued flit 787
Requeued flit 2334
Requeued flit 2093
Requeued flit 2102
Requeued flit 79
Requeued flit 1514
Requeued flit 21
Requeued flit 919
Requeued flit 2087
Requeued flit 560
Requeued flit 361
Requeued flit 1591
Requeued flit 2203
Requeued flit 1232
Requeued flit 805
Requeued flit 347
Requeued flit 685
Requeued flit 2063
Requeued flit 484
Requeued flit 1705
Requeued flit 431
Requeued flit 2354
Requeued flit 2546
Requeued flit 2466
Requeued flit 2220
Requeued flit 2411
Requeued flit 2048
Requeued flit 1487
Requeued flit 1264
Requeued flit 879
Requeued flit 1620
Requeued flit 753
Requeued flit 2101
Requeued flit 1925
Requeued flit 964
Requeued flit 1764
Requeued flit 485
Requeued flit 727
Requeued flit 1350
Requeued flit 943
Requeued flit 2654
Requeued flit 2122
Requeued flit 2266
Requeued flit 980
Requeued flit 2833
Requeued flit 2841
Requeued flit 1642
Requeued flit 1842
Requeued flit 394
Requeued flit 1127
Requeued flit 1239
Requeued flit 1777
Requeued flit 353
Requeued flit 248
Requeued flit 1265
Requeued flit 780
Requeued flit 2095
Requeued flit 2516
Requeued flit 2708
Requeued flit 773
Requeued flit 2066
Requeued flit 2493
Requeued flit 1337
Requeued flit 1798
Requeued flit 578
Requeued flit 2041
Requeued flit 1558
Requeued flit 1461
Requeued flit 2117
Requeued flit 2424
Requeued flit 2063
Requeued flit 1941
Requeued flit 1650
Requeued flit 1747
Requeued flit 681
Requeued flit 1811
Requeued flit 1893
Requeued flit 3112
Requeued flit 445
Requeued flit 1722
Requeued flit 2520
Requeued flit 2649
Requeued flit 2982
Requeued flit 2926
Requeued flit 2331
Requeued flit 1359
Requeued flit 775
Requeued flit 2514
Requeued flit 3147
Requeued flit 2312
Requeued flit 2028
Requeued flit 3022
Requeued flit 1956
Requeued flit 365
Requeued flit 733
Requeued flit 640
Requeued flit 641
Requeued flit 2898
Requeued flit 1988
Requeued flit 438
Requeued flit 1719
Requeued flit 2411
Requeued flit 1763
Requeued flit 1629
Requeued flit 3379
Requeued flit 3106
Requeued flit 546
Requeued flit 901
Requeued flit 1833
Requeued flit 1783
Requeued flit 3500
Requeued flit 1343
Requeued flit 1775
Requeued flit 3104
Requeued flit 908
Requeued flit 2918
Requeued flit 1106
Requeued flit 3537
Requeued flit 2763
Requeued flit 618
Requeued flit 3468
Requeued flit 1758
Requeued flit 2645
Requeued flit 2116
Requeued flit 2255
Requeued flit 3028
Requeued flit 2608
Requeued flit 2792
Requeued flit 3756
Requeued flit 2687
Requeued flit 1647
Requeued flit 981
Requeued flit 3736
Requeued flit 823
Requeued flit 1852
Requeued flit 2767
Requeued flit 1371
Requeued flit 1684
Requeued flit 3094
Requeued flit 907
Requeued flit 2805
Requeued flit 1719
Requeued flit 3183
Requeued flit 2352
Requeued flit 1334
Requeued flit 2259
Requeued flit 2676
Requeued flit 1669
Requeued flit 1843
Requeued flit 2216
Requeued flit 1693
Requeued flit 2371
Requeued flit 3002
Requeued flit 4034
Requeued flit 1146
Requeued flit 2472
Requeued flit 2562
Requeued flit 2331
Requeued flit 1246
Requeued flit 1720
Requeued flit 2445
Requeued flit 2927
Requeued flit 2640
Requeued flit 2630
Requeued flit 3061
Requeued flit 1080
Requeued flit 1573
Requeued flit 856
Requeued flit 2453
Requeued flit 2760
Requeued flit 1616
Requeued flit 2950
Requeued flit 2283
Requeued flit 1662
Requeued flit 2957
Requeued flit 1267
Requeued flit 3632
Requeued flit 4257
Requeued flit 3353
Requeued flit 2387
Requeued flit 3474
Requeued flit 3480
Requeued flit 1113
Requeued flit 1601
Requeued flit 979
Requeued flit 2660
Requeued flit 3765
Requeued flit 1044
Requeued flit 1541
Requeued flit 841
Requeued flit 969
Requeued flit 3121
Requeued flit 2275
Requeued flit 4402
Requeued flit 4287
Requeued flit 1943
Requeued flit 4442
Requeued flit 4443
Requeued flit 3305
Requeued flit 2840
Requeued flit 961
Requeued flit 2369
Requeued flit 3458
Requeued flit 1079
Requeued flit 1940
Requeued flit 4314
Requeued flit 4444
Requeued flit 3124
Requeued flit 4523
Requeued flit 1309
Requeued flit 4594
Requeued flit 4472
Requeued flit 1530
Requeued flit 1005
Requeued flit 2851
Requeued flit 4376
Requeued flit 4087
Requeued flit 4457
Requeued flit 2467
Requeued flit 3034
Requeued flit 2313
Requeued flit 2008
Requeued flit 3103
Requeued flit 4625
Requeued flit 3419
Requeued flit 3723
Requeued flit 2222
Requeued flit 3168
Requeued flit 1199
Requeued flit 1650
Requeued flit 3449
Requeued flit 2073
Requeued flit 2141
Requeued flit 4682
Requeued flit 4688
Requeued flit 2571
Requeued flit 1162
Requeued flit 4814
Requeued flit 3962
Requeued flit 4402
Requeued flit 3075
Requeued flit 968
Requeued flit 3263
Requeued flit 2682
Requeued flit 1462
Requeued flit 4843
Requeued flit 3405
Requeued flit 1709
Requeued flit 2816
Requeued flit 3412
Requeued flit 4827
Requeued flit 3130
Requeued flit 3617
Requeued flit 3001
Requeued flit 2300
Requeued flit 2824
Requeued flit 3624
Requeued flit 4118
Requeued flit 812
Requeued flit 5026
Requeued flit 1579
Requeued flit 1550
Requeued flit 3190
Requeued flit 2999
Requeued flit 1694
Requeued flit 1484
Requeued flit 4704
Requeued flit 3031
Requeued flit 4685
Requeued flit 1730
Requeued flit 2994
Requeued flit 2351
Requeued flit 4284
Requeued flit 916
Requeued flit 3340
Requeued flit 4017
Requeued flit 3181
Requeued flit 4391
Requeued flit 5132
Requeued flit 1989
Requeued flit 2408
Requeued flit 1642
Requeued flit 5139
Requeued flit 1930
Requeued flit 2474
Requeued flit 3101
Requeued flit 816
Requeued flit 3775
Requeued flit 1918
Requeued flit 2747
Requeued flit 4001
Requeued flit 4802
Requeued flit 2457
Requeued flit 3970
Requeued flit 2498
Requeued flit 2470
Requeued flit 2600
Requeued flit 2440
Requeued flit 5001
Requeued flit 3741
Requeued flit 5408
Requeued flit 2812
Requeued flit 3053
Requeued flit 2557
Requeued flit 5447
Requeued flit 2845
Requeued flit 2205
Requeued flit 1411
Requeued flit 1821
Requeued flit 3056
Requeued flit 1847
Requeued flit 5423
Requeued flit 1186
Requeued flit 3646
Requeued flit 2591
Requeued flit 4115
Requeued flit 2012
Requeued flit 4028
Requeued flit 4097
Requeued flit 5706
Requeued flit 5720
Requeued flit 4259
Requeued flit 4025
Requeued flit 3572
Requeued flit 2732
Requeued flit 1472
Requeued flit 5774
Requeued flit 5609
Requeued flit 3911
Requeued flit 4832
Requeued flit 5218
Requeued flit 2705
Requeued flit 4582
Requeued flit 5871
Requeued flit 5155
Requeued flit 4128
Requeued flit 5299
Requeued flit 3124
Requeued flit 962
Requeued flit 3933
Requeued flit 4191
Requeued flit 5362
Requeued flit 5070
Requeued flit 3422
Requeued flit 5693
Requeued flit 1569
Requeued flit 3301
Requeued flit 4744
Requeued flit 5605
Requeued flit 2741
Requeued flit 4221
Requeued flit 5225
Requeued flit 4414
Requeued flit 5897
Requeued flit 4081
Requeued flit 5786
Requeued flit 4146
Requeued flit 4342
Requeued flit 3897
Requeued flit 4352
Requeued flit 3966
Requeued flit 2790
Requeued flit 1639
Requeued flit 1511
Requeued flit 6007
Requeued flit 1954
Requeued flit 6266
Requeued flit 5431
Requeued flit 5734
Requeued flit 2336
Requeued flit 1744
Requeued flit 5998
Requeued flit 4382
Requeued flit 3656
Requeued flit 5120
Requeued flit 2233
Requeued flit 2172
Requeued flit 2346
Requeued flit 4568
Requeued flit 2522
Requeued flit 4453
Requeued flit 3254
Requeued flit 5014
Requeued flit 921
Requeued flit 6426
Requeued flit 4446
Requeued flit 3844
Requeued flit 4832
Requeued flit 4180
Requeued flit 5393
Requeued flit 4059
Requeued flit 2919
Requeued flit 2922
Requeued flit 2706
Requeued flit 3298
Requeued flit 4405
Requeued flit 4478
Requeued flit 3472
Requeued flit 4466
Requeued flit 3020
Requeued flit 2803
Requeued flit 2624
Requeued flit 6575
Requeued flit 6025
Requeued flit 2630
Requeued flit 5200
Requeued flit 2413
Requeued flit 6450
Requeued flit 5664
Requeued flit 4448
Requeued flit 6395
Requeued flit 4517
Requeued flit 3977
Requeued flit 6719
Requeued flit 4227
Requeued flit 2892
Requeued flit 2271
Requeued flit 4629
Requeued flit 4953
Requeued flit 2974
Requeued flit 2868
Requeued flit 6801
Requeued flit 4640
Requeued flit 6764
Requeued flit 2750
Requeued flit 6780
Requeued flit 2243
Requeued flit 5887
Requeued flit 6878
Requeued flit 6100
Requeued flit 4487
Requeued flit 4970
Requeued flit 1402
Requeued flit 1767
Requeued flit 4701
Requeued flit 5990
Requeued flit 6603
Requeued flit 1571
Requeued flit 4522
Requeued flit 4009
Requeued flit 4017
Requeued flit 3943
Requeued flit 2187
Requeued flit 6387
Requeued flit 2756
Requeued flit 4085
Requeued flit 4920
Requeued flit 2097
Requeued flit 2251
Requeued flit 5687
Requeued flit 5263
Requeued flit 6005
Requeued flit 2128
Requeued flit 3118
Requeued flit 3214
Requeued flit 6533
Requeued flit 5269
Requeued flit 3021
Requeued flit 3662
Requeued flit 5033
Requeued flit 6014
Requeued flit 5179
Requeued flit 4759
Requeued flit 4012
Requeued flit 4486
Requeued flit 2494
Requeued flit 7229
Requeued flit 7176
Requeued flit 4424
Requeued flit 2067
Requeued flit 4196
Requeued flit 7368
Requeued flit 3671
Requeued flit 7331
Requeued flit 1470
Requeued flit 5390
Requeued flit 7324
Requeued flit 2798
Requeued flit 4614
Requeued flit 2326
Requeued flit 3647
Requeued flit 3382
Requeued flit 4457
Requeued flit 4796
Requeued flit 5696
Requeued flit 7523
Requeued flit 7463
Requeued flit 7222
Requeued flit 2235
Requeued flit 5155
Requeued flit 4204
Requeued flit 4978
Requeued flit 5499
Requeued flit 3761
Requeued flit 2636
Requeued flit 4967
Requeued flit 6987
Requeued flit 2082
Requeued flit 5004
Requeued flit 2273
Requeued flit 4556
Requeued flit 7509
Requeued flit 7204
Requeued flit 7586
Requeued flit 3643
Requeued flit 7602
Requeued flit 2629
Requeued flit 5914
Requeued flit 2151
Requeued flit 3515
Requeued flit 3139
Requeued flit 6969
Requeued flit 6620
Requeued flit 5342
Requeued flit 6744
Requeued flit 5632
Requeued flit 2959
Requeued flit 3421
Requeued flit 7703
Requeued flit 5616
Requeued flit 3944
Requeued flit 2257
Requeued flit 5120
Requeued flit 7912
Requeued flit 4129
Requeued flit 5905
Requeued flit 1990
Requeued flit 3839
Requeued flit 7660
Requeued flit 2698
Requeued flit 2939
Requeued flit 5973
Requeued flit 5628
Requeued flit 2000
Requeued flit 6671
Requeued flit 1897
Requeued flit 5653
Requeued flit 7982
Requeued flit 5377
Requeued flit 8006
Requeued flit 4126
Requeued flit 5403
Requeued flit 7954
Requeued flit 7605
Requeued flit 4998
Requeued flit 4038
Requeued flit 1921
Requeued flit 5123
Requeued flit 5891
Requeued flit 8147
Requeued flit 2936
Requeued flit 757
Requeued flit 4707
Requeued flit 1954
Requeued flit 4247
Requeued flit 2256
Requeued flit 4000
Requeued flit 3429
Requeued flit 7139
Requeued flit 5026
Requeued flit 8131
Requeued flit 2548
Requeued flit 6386
Requeued flit 8275
Requeued flit 5724
Requeued flit 8220
Requeued flit 3611
Requeued flit 6721
Requeued flit 5708
Requeued flit 5516
Requeued flit 6524
Requeued flit 1863
Requeued flit 1814
Requeued flit 5295
Requeued flit 856
Requeued flit 5883
Requeued flit 4269
Requeued flit 6326
Requeued flit 2791
Requeued flit 5782
Requeued flit 6701
Requeued flit 7995
Requeued flit 5030
Requeued flit 3836
Requeued flit 2802
Requeued flit 8265
Requeued flit 5269
Requeued flit 2272
Requeued flit 8504
Requeued flit 5406
Requeued flit 8571
Requeued flit 2627
Requeued flit 8580
Requeued flit 3470
Requeued flit 5730
Requeued flit 4945
Requeued flit 5977
Requeued flit 2479
Requeued flit 5549
Requeued flit 8305
Requeued flit 7403
Requeued flit 8586
Requeued flit 7618
Requeued flit 8235
Requeued flit 5892
Requeued flit 4013
Requeued flit 7234
Requeued flit 8404
Requeued flit 7258
Requeued flit 6551
Requeued flit 4503
Requeued flit 3710
Requeued flit 4186
Requeued flit 6272
Requeued flit 6033
Requeued flit 5715
Requeued flit 6482
Requeued flit 3666
Requeued flit 5668
Requeued flit 4400
Requeued flit 5867
Requeued flit 7149
Requeued flit 5895
Requeued flit 8824
Requeued flit 7117
Requeued flit 6343
Requeued flit 5978
Requeued flit 4285
Requeued flit 5936
Requeued flit 4055
Requeued flit 8245
Requeued flit 8605
Requeued flit 5558
Requeued flit 2350
Requeued flit 3785
Requeued flit 4168
Requeued flit 2621
Requeued flit 3573
Requeued flit 8900
Requeued flit 6287
Requeued flit 2964
Requeued flit 5029
Requeued flit 6865
Requeued flit 4964
Requeued flit 8668
Requeued flit 6602
Requeued flit 7218
Requeued flit 6133
Requeued flit 5853
Requeued flit 9080
Requeued flit 3638
Requeued flit 5100
Requeued flit 2581
Requeued flit 6107
Requeued flit 1387
Requeued flit 2463
Requeued flit 8635
Requeued flit 8582
Requeued flit 4509
Requeued flit 5634
Requeued flit 9169
Requeued flit 6423
Requeued flit 5489
Requeued flit 5255
Requeued flit 4809
Requeued flit 2697
Requeued flit 8628
Requeued flit 2988
Requeued flit 4624
Requeued flit 2149
Requeued flit 7994
Requeued flit 6235
Requeued flit 2067
Requeued flit 8391
Requeued flit 4131
Requeued flit 8331
Requeued flit 4318
Requeued flit 6880
Requeued flit 7201
Requeued flit 6177
Requeued flit 8126
Requeued flit 8793
Requeued flit 5232
Requeued flit 9340
Requeued flit 9465
Requeued flit 9439
Requeued flit 4706
Requeued flit 5123
Requeued flit 6903
Requeued flit 4941
Requeued flit 6366
Requeued flit 7070
Requeued flit 8051
Requeued flit 2698
Requeued flit 5760
Requeued flit 2775
Requeued flit 2938
Requeued flit 6476
Requeued flit 4008
Requeued flit 6480
Requeued flit 3991
Requeued flit 2735
Requeued flit 6009
Requeued flit 7378
Requeued flit 2814
Requeued flit 9281
Requeued flit 9684
Requeued flit 2433
Requeued flit 9639
Requeued flit 5069
Requeued flit 3772
Requeued flit 2903
Requeued flit 4433
Requeued flit 9676
Requeued flit 6823
Requeued flit 1974
Requeued flit 2105
Requeued flit 4773
Requeued flit 6969
Requeued flit 7755
Requeued flit 9646
Requeued flit 8694
Requeued flit 4198
Requeued flit 7688
Requeued flit 6546
Requeued flit 9584
Requeued flit 4740
Requeued flit 3180
Requeued flit 2803
Requeued flit 9665
Requeued flit 8344
Requeued flit 6526
Requeued flit 7248
Requeued flit 7026
Requeued flit 3035
Requeued flit 6982
Requeued flit 9957
Requeued flit 2958
Requeued flit 5565
Requeued flit 6687
Requeued flit 8658
Requeued flit 2699
Requeued flit 3613
Requeued flit 10087
Requeued flit 7870
Requeued flit 6920
Requeued flit 2502
Requeued flit 6898
Requeued flit 10015
Requeued flit 3103
Requeued flit 8643
Requeued flit 8278
Requeued flit 6818
Requeued flit 7114
Requeued flit 7363
Requeued flit 5190
Requeued flit 6120
Requeued flit 5104
Requeued flit 3221
Requeued flit 6897
Requeued flit 7271
Requeued flit 3824
Requeued flit 10327
Requeued flit 9543
Requeued flit 2937
Requeued flit 7151
Requeued flit 4865
Requeued flit 2958
Requeued flit 7076
Requeued flit 5569
Requeued flit 5598
Requeued flit 7232
Requeued flit 6936
Requeued flit 5727
Requeued flit 2129
Requeued flit 9114
Requeued flit 7470
Requeued flit 10528
Requeued flit 3932
Requeued flit 9190
Requeued flit 1783
Requeued flit 2394
Requeued flit 5044
Requeued flit 10372
Requeued flit 4436
Requeued flit 10340
Requeued flit 7549
Requeued flit 6618
Requeued flit 2872
Requeued flit 6896
Requeued flit 5663
Requeued flit 6679
Requeued flit 9368
Requeued flit 7483
Requeued flit 3323
Requeued flit 10499
Requeued flit 9207
Requeued flit 5147
Requeued flit 7541
Requeued flit 5734
Requeued flit 10790
Requeued flit 7130
Requeued flit 2592
Requeued flit 4856
Requeued flit 10267
Requeued flit 7597
Requeued flit 7604
Requeued flit 4950
Requeued flit 7589
Requeued flit 6793
Requeued flit 4926
Requeued flit 4185
Requeued flit 3433
Requeued flit 3766
Requeued flit 3052
Requeued flit 2773
Requeued flit 8536
Requeued flit 5905
Requeued flit 3841
Requeued flit 4124
Requeued flit 9361
Requeued flit 3935
Requeued flit 2683
Requeued flit 6014
Requeued flit 8143
Requeued flit 10862
Requeued flit 10993
Requeued flit 5773
Requeued flit 9001
Requeued flit 4655
Requeued flit 10995
Requeued flit 11131
Requeued flit 5063
Requeued flit 8552
Requeued flit 8256
Requeued flit 2668
Requeued flit 8219
Requeued flit 5237
Requeued flit 11070
Requeued flit 9613
Requeued flit 7600
Requeued flit 7445
Requeued flit 1550
Requeued flit 7344
Requeued flit 3997
Requeued flit 8241
Requeued flit 8583
Requeued flit 4005
Requeued flit 5179
Requeued flit 7911
Requeued flit 7616
Requeued flit 7106
Requeued flit 5073
Requeued flit 4416
Requeued flit 9620
Requeued flit 10642
Requeued flit 9676
Requeued flit 7480
Requeued flit 7684
Requeued flit 7457
Requeued flit 4783
Requeued flit 2059
Requeued flit 3151
Requeued flit 6143
Requeued flit 9634
Requeued flit 10309
Requeued flit 3218
Requeued flit 3795
Requeued flit 9475
Requeued flit 7292
Requeued flit 3475
Requeued flit 10862
Requeued flit 3894
Requeued flit 5372
Requeued flit 11581
Requeued flit 3187
Requeued flit 11685
Requeued flit 5885
Requeued flit 7955
Requeued flit 10083
Requeued flit 3410
Requeued flit 5606
Requeued flit 11205
Requeued flit 2518
Requeued flit 8377
Requeued flit 9925
Requeued flit 1754
Requeued flit 8634
Requeued flit 3818
Requeued flit 5666
Requeued flit 3673
Requeued flit 8381
Requeued flit 6601
Requeued flit 11793
Requeued flit 11930
Requeued flit 2945
Requeued flit 5858
Requeued flit 3424
Requeued flit 3835
Requeued flit 4588
Requeued flit 9763
Requeued flit 4818
Requeued flit 11298
Requeued flit 3840
Requeued flit 11799
Requeued flit 5787
Requeued flit 7025
Requeued flit 11995
Requeued flit 6563
Requeued flit 11945
Requeued flit 7535
Requeued flit 10634
Requeued flit 10284
Requeued flit 4497
Requeued flit 7005
Requeued flit 7766
Requeued flit 3462
Requeued flit 9680
Requeued flit 8103
Requeued flit 5906
Requeued flit 7601
Requeued flit 8373
Requeued flit 12136
Requeued flit 3771
Requeued flit 5537
Requeued flit 5667
Requeued flit 8407
Requeued flit 5374
Requeued flit 8689
Requeued flit 6091
Requeued flit 6917
Requeued flit 5976
Requeued flit 8406
Requeued flit 5031
Requeued flit 6134
Requeued flit 9497
Requeued flit 3965
Requeued flit 2607
Requeued flit 5830
Requeued flit 4867
Requeued flit 9408
Requeued flit 6083
Requeued flit 10948
Requeued flit 10703
Requeued flit 8014
Requeued flit 9393
Requeued flit 10359
Requeued flit 12072
Requeued flit 12339
Requeued flit 10579
Requeued flit 8776
Requeued flit 4471
Requeued flit 5142
Requeued flit 5775
Requeued flit 3120
Requeued flit 2936
Requeued flit 10480
Requeued flit 5254
Requeued flit 8552
Requeued flit 5700
Requeued flit 7655
Requeued flit 12482
Requeued flit 3330
Requeued flit 12313
Requeued flit 6030
Requeued flit 9982
Requeued flit 12546
Requeued flit 9874
Requeued flit 8197
Requeued flit 9975
Requeued flit 6973
Requeued flit 5210
Requeued flit 9520
Requeued flit 9786
Requeued flit 8079
Requeued flit 4798
Requeued flit 6394
Requeued flit 9014
Requeued flit 3726
Requeued flit 6096
Requeued flit 9094
Requeued flit 7861
Requeued flit 5844
Requeued flit 12668
Requeued flit 12732
Requeued flit 7789
Requeued flit 4837
Requeued flit 12799
Requeued flit 12740
Requeued flit 8827
Requeued flit 12822
Requeued flit 6864
Requeued flit 9945
Requeued flit 12916
Requeued flit 11272
Requeued flit 4782
Requeued flit 9092
Requeued flit 5585
Requeued flit 11858
Requeued flit 11368
Requeued flit 5656
Requeued flit 11823
Requeued flit 9394
Requeued flit 7017
Requeued flit 8725
Requeued flit 8999
Requeued flit 10340
Requeued flit 3910
Requeued flit 3925
Requeued flit 6233
Requeued flit 8018
Requeued flit 10779
Requeued flit 6692
Requeued flit 11850
Requeued flit 8589
Requeued flit 3549
Requeued flit 3689
Requeued flit 4350
Requeued flit 13144
Requeued flit 10479
Requeued flit 3871
Requeued flit 13161
Requeued flit 8746
Requeued flit 8509
Requeued flit 6625
Requeued flit 5681
Requeued flit 7214
Requeued flit 7832
Requeued flit 11128
Requeued flit 9375
Requeued flit 4223
Requeued flit 9576
Requeued flit 6999
Requeued flit 13237
Requeued flit 12571
Requeued flit 4329
Requeued flit 9475
Requeued flit 5309
Requeued flit 8916
Requeued flit 4961
Requeued flit 4004
Requeued flit 10494
Requeued flit 13290
Requeued flit 4380
Requeued flit 5315
Requeued flit 4317
Requeued flit 10179
Requeued flit 2256
Requeued flit 13179
Requeued flit 9011
Requeued flit 4563
Requeued flit 11659
Requeued flit 6740
Requeued flit 3895
Requeued flit 4349
Requeued flit 9516
Requeued flit 3564
Requeued flit 9223
Requeued flit 9843
Requeued flit 13473
Requeued flit 6983
Requeued flit 13541
Requeued flit 13612
Requeued flit 9527
Requeued flit 9345
Requeued flit 7427
Requeued flit 11789
Requeued flit 13593
Requeued flit 10933
Requeued flit 8034
Requeued flit 9569
Requeued flit 13682
Requeued flit 10970
Requeued flit 11371
Requeued flit 12362
Requeued flit 4027
Requeued flit 7726
Requeued flit 6995
Requeued flit 8344
Requeued flit 9415
Requeued flit 11242
Requeued flit 4342
Requeued flit 8375
Requeued flit 7511
Requeued flit 8994
Requeued flit 4515
Requeued flit 9679
Requeued flit 13911
Requeued flit 5999
Requeued flit 3332
Requeued flit 9108
Requeued flit 9361
Requeued flit 13859
Requeued flit 11333
Requeued flit 13988
Requeued flit 3627
Requeued flit 11031
Requeued flit 10869
Requeued flit 7057
Requeued flit 4140
Requeued flit 8179
Requeued flit 6374
Requeued flit 7557
Requeued flit 12265
Requeued flit 10024
Requeued flit 11249
Requeued flit 9735
Requeued flit 3135
Requeued flit 9827
Requeued flit 9750
Requeued flit 9315
Requeued flit 9965
Requeued flit 4532
Requeued flit 4303
Requeued flit 4480
Requeued flit 4313
Requeued flit 14215
Requeued flit 2832
Requeued flit 9769
Requeued flit 10061
Requeued flit 4945
Requeued flit 9533
Requeued flit 5546
Requeued flit 10156
Requeued flit 9252
Requeued flit 6182
Requeued flit 4148
Requeued flit 2427
Requeued flit 6607
Requeued flit 4619
Requeued flit 12014
Requeued flit 4934
Requeued flit 9850
Requeued flit 13988
Requeued flit 9409
Requeued flit 13577
Requeued flit 5431
Requeued flit 4549
Requeued flit 6945
Requeued flit 12628
Requeued flit 9494
Requeued flit 14409
Requeued flit 11561
Requeued flit 14576
Requeued flit 8164
Requeued flit 8445
Requeued flit 11362
Requeued flit 4604
Requeued flit 5227
Requeued flit 4827
Requeued flit 4333
Requeued flit 14560
Requeued flit 11734
Requeued flit 9500
Requeued flit 6812
Requeued flit 4781
Requeued flit 3394
Requeued flit 6060
Requeued flit 4419
Requeued flit 11940
Requeued flit 11295
Requeued flit 10327
Requeued flit 10510
Requeued flit 4199
Requeued flit 5815
Requeued flit 10171
Requeued flit 2957
Requeued flit 6261
Requeued flit 8786
Requeued flit 10496
Requeued flit 9716
Requeued flit 10448
Requeued flit 4470
Requeued flit 8136
Requeued flit 9663
Requeued flit 14448
Requeued flit 10105
Requeued flit 7738
Requeued flit 14898
Requeued flit 7789
Requeued flit 7350
Requeued flit 5469
Requeued flit 10453
Requeued flit 12691
Requeued flit 7064
Requeued flit 3121
Requeued flit 11993
Requeued flit 8888
Requeued flit 14987
Requeued flit 9292
Requeued flit 5229
Requeued flit 2922
Requeued flit 4629
Requeued flit 9973
Requeued flit 2805
Requeued flit 4359
Requeued flit 10643
Requeued flit 11006
Requeued flit 14871
Requeued flit 15059
Requeued flit 9900
Requeued flit 12913
Requeued flit 15043
Requeued flit 10338
Requeued flit 8017
Requeued flit 7548
Requeued flit 12779
Requeued flit 12181
Requeued flit 6868
Requeued flit 8520
Requeued flit 3475
Requeued flit 6901
Requeued flit 12089
Requeued flit 6851
Requeued flit 4791
Requeued flit 14312
Requeued flit 11537
Requeued flit 13827
Requeued flit 15247
Requeued flit 6757
Requeued flit 10892
Requeued flit 9266
Requeued flit 5736
Requeued flit 15179
Requeued flit 15321
Requeued flit 12290
Requeued flit 11849
Requeued flit 6279
Requeued flit 10752
Requeued flit 13477
Requeued flit 10228
Requeued flit 5561
Requeued flit 3330
Requeued flit 5995
Requeued flit 15360
Requeued flit 5658
Requeued flit 10443
Requeued flit 12051
Requeued flit 4596
Requeued flit 5334
Requeued flit 13717
Requeued flit 7728
Requeued flit 7054
Requeued flit 12875
Requeued flit 2129
Requeued flit 15277
Requeued flit 11067
Requeued flit 4501
Requeued flit 15633
Requeued flit 6527
Requeued flit 3035
Requeued flit 7308
Requeued flit 5498
Requeued flit 4649
Requeued flit 10780
Requeued flit 11300
Requeued flit 2927
Requeued flit 12782
Requeued flit 11027
Requeued flit 13441
Requeued flit 15767
Requeued flit 9535
Requeued flit 15734
Requeued flit 14023
Requeued flit 11191
Requeued flit 9936
Requeued flit 15820
Requeued flit 5267
Requeued flit 10985
Requeued flit 7646
Requeued flit 7734
Requeued flit 5479
Requeued flit 2730
Requeued flit 2629
Requeued flit 13456
Requeued flit 7232
Requeued flit 15795
Requeued flit 7128
Requeued flit 3795
Requeued flit 9541
Requeued flit 9107
Requeued flit 5411
Requeued flit 4689
Requeued flit 15758
Requeued flit 8169
Requeued flit 5190
Requeued flit 4852
Requeued flit 11842
Requeued flit 10808
Requeued flit 11299
Requeued flit 15913
Requeued flit 10834
Requeued flit 7030
Requeued flit 15938
Requeued flit 3129
Requeued flit 9609
Requeued flit 11785
Requeued flit 16029
Requeued flit 16099
Requeued flit 4434
Requeued flit 13562
Requeued flit 15699
Requeued flit 4943
Requeued flit 15767
Requeued flit 5388
Requeued flit 7173
Requeued flit 10394
Requeued flit 14151
Requeued flit 2957
Requeued flit 12719
Requeued flit 13448
Requeued flit 3073
Requeued flit 3522
Requeued flit 12682
Requeued flit 16280
Requeued flit 2849
Requeued flit 5095
Requeued flit 16320
Requeued flit 5302
Requeued flit 5474
Requeued flit 6745
Requeued flit 6378
Requeued flit 5509
Requeued flit 8104
Requeued flit 12612
Requeued flit 8467
Requeued flit 7293
Requeued flit 10533
Requeued flit 9736
Requeued flit 14107
Requeued flit 11827
Requeued flit 4866
Requeued flit 6434
Requeued flit 16398
Requeued flit 9558
Requeued flit 14096
Requeued flit 9187
Requeued flit 7567
Requeued flit 9316
Requeued flit 8029
Requeued flit 6149
Requeued flit 13240
Requeued flit 14233
Requeued flit 2660
Requeued flit 11552
Requeued flit 13344
Requeued flit 12888
Requeued flit 7251
Requeued flit 11288
Requeued flit 16509
Requeued flit 5289
Requeued flit 5970
Requeued flit 12365
Requeued flit 12666
Requeued flit 6169
Requeued flit 4975
Requeued flit 4895
Requeued flit 6116
Requeued flit 15372
Requeued flit 11921
Requeued flit 5116
Requeued flit 15798
Requeued flit 7860
Requeued flit 11198
Requeued flit 7700
Requeued flit 16684
Requeued flit 10499
Requeued flit 14628
Requeued flit 16761
Requeued flit 11611
Requeued flit 8093
Requeued flit 8636
Requeued flit 9938
Requeued flit 11046
Requeued flit 12833
Requeued flit 12108
Requeued flit 14867
Requeued flit 16818
Requeued flit 7778
Requeued flit 7799
Requeued flit 5932
Requeued flit 15825
Requeued flit 8703
Requeued flit 5856
Requeued flit 5509
Requeued flit 6749
Requeued flit 7750
Requeued flit 15557
Requeued flit 3840
Requeued flit 11764
Requeued flit 7087
Requeued flit 5347
Requeued flit 11193
Requeued flit 6282
Requeued flit 11932
Requeued flit 6224
Requeued flit 6261
Requeued flit 4153
Requeued flit 6811
Requeued flit 13744
Requeued flit 9969
Requeued flit 11856
Requeued flit 7883
Requeued flit 17049
Requeued flit 10571
Requeued flit 11851
Requeued flit 6214
Requeued flit 11139
Requeued flit 4403
Requeued flit 17129
Requeued flit 15159
Requeued flit 17233
Requeued flit 5650
Requeued flit 12141
Requeued flit 17240
Requeued flit 11982
Requeued flit 15078
Requeued flit 17112
Requeued flit 9159
Requeued flit 17350
Requeued flit 9984
Requeued flit 13943
Requeued flit 15843
Requeued flit 17179
Requeued flit 17302
Requeued flit 15670
Requeued flit 17323
Requeued flit 11968
Requeued flit 7636
Requeued flit 12322
Requeued flit 11023
Requeued flit 6208
Requeued flit 6101
Requeued flit 8569
Requeued flit 17238
Requeued flit 17125
Requeued flit 6273
Requeued flit 9500
Requeued flit 16727
Requeued flit 4013
Requeued flit 4814
Requeued flit 6437
Requeued flit 17569
Requeued flit 14100
Requeued flit 5964
Requeued flit 11953
Requeued flit 5041
Requeued flit 6555
Requeued flit 8935
Requeued flit 9239
Requeued flit 6272
Requeued flit 13064
Requeued flit 7169
Requeued flit 10541
Requeued flit 8363
Requeued flit 9508
Requeued flit 12374
Requeued flit 16991
Requeued flit 8403
Requeued flit 11863
Requeued flit 7976
Requeued flit 6274
Requeued flit 17445
Requeued flit 14489
Requeued flit 11872
Requeued flit 13555
Requeued flit 17704
Requeued flit 12384
Requeued flit 17713
Requeued flit 16132
Requeued flit 14747
Requeued flit 12328
Requeued flit 12333
Requeued flit 11564
Requeued flit 9481
Requeued flit 9686
Requeued flit 8970
Requeued flit 11841
Requeued flit 15426
Requeued flit 6696
Requeued flit 12165
Requeued flit 6639
Requeued flit 12107
Requeued flit 11922
Requeued flit 14165
Requeued flit 6605
Requeued flit 13040
Requeued flit 12386
Requeued flit 11686
Requeued flit 3824
Requeued flit 7390
Requeued flit 8817
Requeued flit 11477
Requeued flit 12289
Requeued flit 15157
Requeued flit 16386
Requeued flit 4797
Requeued flit 11900
Requeued flit 8034
Requeued flit 8268
Requeued flit 17997
Requeued flit 12537
Requeued flit 5563
Requeued flit 12399
Requeued flit 6039
Requeued flit 6163
Requeued flit 11968
Requeued flit 14413
Requeued flit 9775
Requeued flit 12665
Requeued flit 12372
Requeued flit 12499
Requeued flit 13046
Requeued flit 12627
Requeued flit 12156
Requeued flit 18235
Requeued flit 5479
Requeued flit 4880
Requeued flit 14740
Requeued flit 12082
Requeued flit 8802
Requeued flit 6382
Requeued flit 15731
Requeued flit 7966
Requeued flit 8645
Requeued flit 12705
Requeued flit 5683
Requeued flit 16614
Requeued flit 8766
Requeued flit 15102
Requeued flit 5115
Requeued flit 10987
Requeued flit 14969
Requeued flit 8930
Requeued flit 3697
Requeued flit 11426
Requeued flit 12781
Requeued flit 18448
Requeued flit 12370
Requeued flit 17307
Requeued flit 10660
Requeued flit 12596
Requeued flit 18376
Requeued flit 11484
Requeued flit 11212
Requeued flit 16064
Requeued flit 5902
Requeued flit 18104
Requeued flit 14072
Requeued flit 11245
Requeued flit 8090
Requeued flit 12148
Requeued flit 18254
Requeued flit 13024
Requeued flit 12850
Requeued flit 13771
Requeued flit 9593
Requeued flit 12588
Requeued flit 7722
Requeued flit 17054
Requeued flit 18640
Requeued flit 10690
Requeued flit 14836
Requeued flit 6239
Requeued flit 10501
Requeued flit 16581
Requeued flit 8519
Requeued flit 16470
Requeued flit 13401
Requeued flit 14105
Requeued flit 8448
Requeued flit 9250
Requeued flit 16711
Requeued flit 15070
Requeued flit 14899
Requeued flit 5462
Requeued flit 3596
Requeued flit 12857
Requeued flit 6807
Requeued flit 7098
Requeued flit 18856
Requeued flit 7840
Requeued flit 13186
Requeued flit 18809
Requeued flit 8989
Requeued flit 6023
Requeued flit 8939
Requeued flit 16097
Requeued flit 11337
Requeued flit 13381
Requeued flit 7314
Requeued flit 7286
Requeued flit 10132
Requeued flit 18209
Requeued flit 10202
Requeued flit 12987
Requeued flit 11635
Requeued flit 17081
Requeued flit 6041
Requeued flit 14450
Requeued flit 19095
Requeued flit 13561
Requeued flit 13608
Requeued flit 8407
Requeued flit 15113
Requeued flit 15297
Requeued flit 16597
Requeued flit 16498
Requeued flit 12969
Requeued flit 13356
Requeued flit 4782
Requeued flit 9982
Requeued flit 8470
Requeued flit 19063
Requeued flit 19148
Requeued flit 4124
Requeued flit 13807
Requeued flit 9128
Requeued flit 8895
Requeued flit 12530
Requeued flit 9880
Requeued flit 10949
Requeued flit 11068
Requeued flit 6336
Requeued flit 10829
Requeued flit 5987
Requeued flit 12793
Requeued flit 7103
Requeued flit 12846
Requeued flit 6169
Requeued flit 12816
Requeued flit 12600
Requeued flit 9096
Requeued flit 5463
Requeued flit 9483
Requeued flit 6384
Requeued flit 4366
Requeued flit 13719
Requeued flit 16689
Requeued flit 19430
Requeued flit 6876
Requeued flit 13157
Requeued flit 11984
Requeued flit 17370
Requeued flit 3948
Requeued flit 8771
Requeued flit 7075
Requeued flit 15892
Requeued flit 14290
Requeued flit 13600
Requeued flit 10711
Requeued flit 5918
Requeued flit 19586
Requeued flit 14226
Requeued flit 15638
Requeued flit 14227
Requeued flit 6492
Requeued flit 8807
Requeued flit 8503
Requeued flit 17260
Requeued flit 17626
Requeued flit 19339
Requeued flit 19781
Requeued flit 8766
Requeued flit 10038
Requeued flit 5880
Requeued flit 8854
Requeued flit 19782
Requeued flit 8984
Requeued flit 9974
Requeued flit 6117
Requeued flit 10331
Requeued flit 10627
Requeued flit 18091
Requeued flit 8578
Requeued flit 9605
Requeued flit 13841
Requeued flit 6360
Requeued flit 19882
Requeued flit 19962
Requeued flit 8136
Requeued flit 19873
Requeued flit 13245
Requeued flit 14872
Requeued flit 12626
Requeued flit 12113
Requeued flit 13533
Requeued flit 7662
Requeued flit 7377
Requeued flit 11200
Requeued flit 20022
Requeued flit 6441
Requeued flit 16950
Requeued flit 12384
Requeued flit 17771
Requeued flit 12423
Requeued flit 6125
Requeued flit 14656
Requeued flit 7366
Requeued flit 6924
Requeued flit 7715
Requeued flit 17246
Requeued flit 6877
Requeued flit 15000
Requeued flit 14267
Requeued flit 14760
Requeued flit 9507
Requeued flit 15793
Requeued flit 9773
Requeued flit 6853
Requeued flit 20036
Requeued flit 16340
Requeued flit 6330
Requeued flit 14203
Requeued flit 14289
Requeued flit 6676
Requeued flit 10739
Requeued flit 13716
Requeued flit 13482
Requeued flit 6360
Requeued flit 12656
Requeued flit 13340
Requeued flit 20230
Requeued flit 11613
Requeued flit 11137
Requeued flit 7785
Requeued flit 8767
Requeued flit 14048
Requeued flit 11942
Requeued flit 13494
Requeued flit 10112
Requeued flit 11311
Requeued flit 4990
Requeued flit 9314
Requeued flit 13206
Requeued flit 20481
Requeued flit 20431
Requeued flit 6297
Requeued flit 6525
Requeued flit 6298
Requeued flit 7934
Requeued flit 6264
Requeued flit 10512
Requeued flit 14797
Requeued flit 16139
Requeued flit 19496
Requeued flit 20024
Requeued flit 2706
Requeued flit 7693
Requeued flit 20713
Requeued flit 17786
Requeued flit 18647
Requeued flit 14697
Requeued flit 13784
Requeued flit 6229
Requeued flit 5477
Requeued flit 19597
Requeued flit 7223
Requeued flit 9263
Requeued flit 13597
Requeued flit 9753
Requeued flit 12311
Requeued flit 9939
Requeued flit 11981
Requeued flit 6925
Requeued flit 20705
Requeued flit 14927
Requeued flit 9726
Requeued flit 14385
Requeued flit 14625
Requeued flit 18129
Requeued flit 13466
Requeued flit 14454
Requeued flit 17277
Requeued flit 20911
Requeued flit 13823
Requeued flit 14134
Requeued flit 13916
Requeued flit 14210
Requeued flit 20971
Requeued flit 7066
Requeued flit 9989
Requeued flit 16469
Requeued flit 16401
Requeued flit 16578
Requeued flit 14674
Requeued flit 10182
Requeued flit 11895
Requeued flit 16082
Requeued flit 16909
Requeued flit 17995
Requeued flit 7929
Requeued flit 16271
Requeued flit 18447
Requeued flit 14302
Requeued flit 16437
Requeued flit 21013
Requeued flit 6592
Requeued flit 17336
Requeued flit 6132
Requeued flit 15489
Requeued flit 18762
Requeued flit 7469
Requeued flit 10401
Requeued flit 14163
Requeued flit 20986
Requeued flit 13501
Requeued flit 13712
Requeued flit 14003
Requeued flit 16628
Requeued flit 10811
Requeued flit 21137
Requeued flit 7546
Requeued flit 8184
Requeued flit 6388
Requeued flit 16452
Requeued flit 7485
Requeued flit 21161
Requeued flit 14833
Requeued flit 9861
Requeued flit 15740
Requeued flit 11523
Requeued flit 21369
Requeued flit 16098
Requeued flit 15610
Requeued flit 15064
Requeued flit 9989
Requeued flit 6591
Requeued flit 17035
Requeued flit 12260
Requeued flit 17525
Requeued flit 18011
Requeued flit 10147
Requeued flit 14990
Requeued flit 14455
Requeued flit 4509
Requeued flit 7935
Requeued flit 4214
Requeued flit 14259
Requeued flit 14063
Requeued flit 11055
Requeued flit 6078
Requeued flit 6109
Requeued flit 11083
Requeued flit 17763
Requeued flit 19477
Requeued flit 21572
Requeued flit 10342
Requeued flit 14674
Requeued flit 17932
Requeued flit 19315
Requeued flit 6313
Requeued flit 7546
Requeued flit 15062
Requeued flit 13539
Requeued flit 8565
Requeued flit 14307
Requeued flit 6688
Requeued flit 14930
Requeued flit 10225
Requeued flit 9555
Requeued flit 15685
Requeued flit 19508
Requeued flit 5683
Requeued flit 10546
Requeued flit 11897
Requeued flit 21757
Requeued flit 17084
Requeued flit 15211
Requeued flit 15015
Requeued flit 16618
Requeued flit 15716
Requeued flit 15547
Requeued flit 19425
Requeued flit 21692
Requeued flit 14288
Requeued flit 5041
Requeued flit 14626
Requeued flit 21477
Requeued flit 21305
Requeued flit 6992
Requeued flit 9627
Requeued flit 9161
Requeued flit 14551
Requeued flit 13379
Requeued flit 21888
Requeued flit 21951
Requeued flit 18246
Requeued flit 7190
Requeued flit 21685
Requeued flit 19673
Requeued flit 19152
Requeued flit 21176
Requeued flit 14911
Requeued flit 21558
Requeued flit 15847
Requeued flit 7540
Requeued flit 10472
Requeued flit 5827
Requeued flit 14557
Requeued flit 17178
Requeued flit 18035
Requeued flit 10829
Requeued flit 11218
Requeued flit 6432
Requeued flit 15163
Requeued flit 12600
Requeued flit 22223
Requeued flit 7462
Requeued flit 6582
Requeued flit 7806
Requeued flit 5861
Requeued flit 15034
Requeued flit 7314
Requeued flit 13708
Requeued flit 9459
Requeued flit 16186
Requeued flit 9357
Requeued flit 10145
Requeued flit 7585
Requeued flit 19555
Requeued flit 7051
Requeued flit 19564
Requeued flit 18909
Requeued flit 19277
Requeued flit 15830
Requeued flit 15193
Requeued flit 21917
Requeued flit 15900
Requeued flit 22295
Requeued flit 14948
Requeued flit 14525
Requeued flit 17468
Requeued flit 16270
Requeued flit 22285
Requeued flit 15843
Requeued flit 10873
Requeued flit 14994
Requeued flit 8097
Requeued flit 19658
Requeued flit 4313
Requeued flit 6614
Requeued flit 11419
Requeued flit 22420
Requeued flit 15927
Requeued flit 17520
Requeued flit 19100
Requeued flit 16994
Requeued flit 9888
Requeued flit 20408
Requeued flit 22389
Requeued flit 13970
Requeued flit 11299
Requeued flit 14221
Requeued flit 16061
Requeued flit 14514
Requeued flit 14855
Requeued flit 16206
Requeued flit 8454
Requeued flit 22676
Requeued flit 15323
Requeued flit 22076
Requeued flit 6726
Requeued flit 4275
Requeued flit 9646
Requeued flit 19957
Requeued flit 22354
Requeued flit 13232
Requeued flit 17979
Requeued flit 22275
Requeued flit 16691
Requeued flit 15492
Requeued flit 7477
Requeued flit 15745
Requeued flit 6055
Requeued flit 13173
Requeued flit 16305
Requeued flit 8250
Requeued flit 16263
Requeued flit 17844
Requeued flit 16216
Requeued flit 22857
Requeued flit 19464
Requeued flit 20265
Requeued flit 7584
Requeued flit 14583
Requeued flit 11899
Requeued flit 17941
Requeued flit 6922
Requeued flit 7709
Requeued flit 16757
Requeued flit 12629
Requeued flit 15552
Requeued flit 22908
Requeued flit 23034
Requeued flit 9793
Requeued flit 19893
Requeued flit 17535
Requeued flit 22833
Requeued flit 15320
Requeued flit 4303
Requeued flit 11946
Requeued flit 16324
Requeued flit 10345
Requeued flit 11156
Requeued flit 7354
Requeued flit 11942
Requeued flit 11427
Requeued flit 18353
Requeued flit 14985
Requeued flit 20159
Requeued flit 22819
Requeued flit 20580
Requeued flit 17180
Requeued flit 15577
Requeued flit 16547
Requeued flit 18862
Requeued flit 6952
Requeued flit 16943
Requeued flit 16527
Requeued flit 19763
Requeued flit 17058
Requeued flit 7769
Requeued flit 16410
Requeued flit 16226
Requeued flit 14611
Requeued flit 10987
Requeued flit 17492
Requeued flit 8326
Requeued flit 16348
Requeued flit 22747
Requeued flit 8270
Requeued flit 16414
Requeued flit 23439
Requeued flit 20656
Requeued flit 11118
Requeued flit 13785
Requeued flit 23415
Requeued flit 15637
Requeued flit 7334
Requeued flit 12045
Requeued flit 14638
Requeued flit 12158
Requeued flit 8429
Requeued flit 20858
Requeued flit 12216
Requeued flit 7501
Requeued flit 18255
Requeued flit 23308
Requeued flit 16566
Requeued flit 15629
Requeued flit 16573
Requeued flit 12865
Requeued flit 23642
Requeued flit 23176
Requeued flit 10171
Requeued flit 23657
Requeued flit 10181
Requeued flit 4191
Requeued flit 23627
Requeued flit 17755
Requeued flit 10170
Requeued flit 12413
Requeued flit 10137
Requeued flit 23735
Requeued flit 11970
Requeued flit 10402
Requeued flit 11559
Requeued flit 7493
Requeued flit 23124
Requeued flit 11887
Requeued flit 22350
Requeued flit 21016
Requeued flit 15885
Requeued flit 21224
Requeued flit 14133
Requeued flit 7431
Requeued flit 7333
Requeued flit 18397
Requeued flit 11240
Requeued flit 7723
Requeued flit 8237
Requeued flit 11084
Requeued flit 23901
Requeued flit 15213
Requeued flit 18075
Requeued flit 19716
Requeued flit 20252
Requeued flit 8105
Requeued flit 15568
Requeued flit 5698
Requeued flit 21532
Requeued flit 18875
Requeued flit 15997
Requeued flit 12479
Requeued flit 15910
Requeued flit 11040
Requeued flit 23456
Requeued flit 8131
Requeued flit 20881
Requeued flit 15986
Requeued flit 23837
Requeued flit 10914
Requeued flit 17252
Requeued flit 15513
Requeued flit 17571
Requeued flit 10641
Requeued flit 12683
Requeued flit 24041
Requeued flit 15561
Requeued flit 16924
Requeued flit 16406
Requeued flit 15577
Requeued flit 24147
Requeued flit 8057
Requeued flit 12346
Requeued flit 10207
Requeued flit 19076
Requeued flit 21582
Requeued flit 17018
Requeued flit 22929
Requeued flit 10901
Requeued flit 17201
Requeued flit 24033
Requeued flit 15157
Requeued flit 16496
Requeued flit 7662
Requeued flit 22873
Requeued flit 18056
Requeued flit 16605
Requeued flit 11333
Requeued flit 15314
Requeued flit 12736
Requeued flit 12984
Requeued flit 11363
Requeued flit 24306
Requeued flit 24126
Requeued flit 13127
Requeued flit 20889
Requeued flit 24351
Requeued flit 12209
Requeued flit 16580
Requeued flit 16475
Requeued flit 11045
Requeued flit 14110
Requeued flit 11594
Requeued flit 24225
Requeued flit 17191
Requeued flit 5316
Requeued flit 8795
Requeued flit 20656
Requeued flit 16888
Requeued flit 6245
Requeued flit 7053
Requeued flit 11931
Requeued flit 12261
Requeued flit 5229
Requeued flit 17315
Requeued flit 9065
Requeued flit 17444
Requeued flit 7834
Requeued flit 12044
Requeued flit 9334
Requeued flit 18098
Requeued flit 8155
Requeued flit 7559
Requeued flit 11974
Requeued flit 12078
Requeued flit 17684
Requeued flit 17193
Requeued flit 15078
Requeued flit 14985
Requeued flit 6652
Requeued flit 20326
Requeued flit 12194
Requeued flit 16036
Requeued flit 11011
Requeued flit 7560
Requeued flit 11622
Requeued flit 12027
Requeued flit 8336
Requeued flit 6471
Requeued flit 17904
Requeued flit 6688
Requeued flit 8199
Requeued flit 24724
Requeued flit 8466
Requeued flit 16986
Requeued flit 7391
Requeued flit 24853
Requeued flit 23697
Requeued flit 22792
Requeued flit 16532
Requeued flit 10519
Requeued flit 6116
Requeued flit 11242
Requeued flit 24922
Requeued flit 14563
Requeued flit 7081
Requeued flit 17213
Requeued flit 17878
Requeued flit 12123
Requeued flit 7620
Requeued flit 24963
Requeued flit 10818
Requeued flit 22241
Requeued flit 25047
Requeued flit 12093
Requeued flit 10768
Requeued flit 16778
Requeued flit 25079
Requeued flit 17289
Requeued flit 17114
Requeued flit 8261
Requeued flit 22118
Requeued flit 17070
Requeued flit 17009
Requeued flit 12542
Requeued flit 10657
Requeued flit 17965
Requeued flit 17187
Requeued flit 16647
Requeued flit 17208
Requeued flit 8359
Requeued flit 17704
Requeued flit 14479
Requeued flit 21977
Requeued flit 21674
Requeued flit 23418
Requeued flit 17707
Requeued flit 25267
Requeued flit 24657
Requeued flit 17902
Requeued flit 24507
Requeued flit 17692
Requeued flit 18065
Requeued flit 22070
Requeued flit 4952
Requeued flit 7682
Requeued flit 10189
Requeued flit 9723
Requeued flit 25237
Requeued flit 25297
Requeued flit 25212
Requeued flit 19425
Requeued flit 20232
Requeued flit 12338
Requeued flit 17394
Requeued flit 12149
Requeued flit 6172
Requeued flit 23209
Requeued flit 7857
Requeued flit 17926
Requeued flit 17156
Requeued flit 17357
Requeued flit 9365
Requeued flit 19649
Requeued flit 17682
Requeued flit 21419
Requeued flit 22764
Requeued flit 25216
Requeued flit 13039
Requeued flit 22727
Requeued flit 17683
Requeued flit 18318
Requeued flit 21606
Requeued flit 12681
Requeued flit 25750
Requeued flit 12859
Requeued flit 12555
Requeued flit 23080
Requeued flit 25474
Requeued flit 16870
Requeued flit 14442
Requeued flit 21869
Requeued flit 17479
Requeued flit 12497
Requeued flit 25821
Requeued flit 11145
Requeued flit 6815
Requeued flit 25734
Requeued flit 20270
Requeued flit 13881
Requeued flit 11528
Requeued flit 18340
Requeued flit 16805
Requeued flit 22626
Requeued flit 24187
Requeued flit 8835
Requeued flit 8547
Requeued flit 18519
Requeued flit 18221
Requeued flit 22612
Requeued flit 14439
Requeued flit 20726
Requeued flit 8328
Requeued flit 26029
Requeued flit 19208
Requeued flit 21433
Requeued flit 12281
Requeued flit 19912
Requeued flit 24050
Requeued flit 13347
Requeued flit 23445
Requeued flit 13895
Requeued flit 23152
Requeued flit 25957
Requeued flit 20296
Requeued flit 24507
Requeued flit 5538
Requeued flit 14561
Requeued flit 14009
Requeued flit 17332
Requeued flit 23945
Requeued flit 22698
Requeued flit 21839
Requeued flit 10542
Requeued flit 21994
Requeued flit 21903
Requeued flit 15217
Requeued flit 24233
Requeued flit 17806
Requeued flit 8394
Requeued flit 16980
Requeued flit 11271
Requeued flit 15713
Requeued flit 8007
Requeued flit 17047
Requeued flit 9600
Requeued flit 8889
Requeued flit 19515
Requeued flit 8669
Requeued flit 14572
Requeued flit 9071
Requeued flit 26581
Requeued flit 20230
Requeued flit 26594
Requeued flit 20443
Requeued flit 20279
Requeued flit 26504
Requeued flit 13142
Requeued flit 18297
Requeued flit 18307
Requeued flit 26725
Requeued flit 7590
Requeued flit 18585
Requeued flit 11619
Requeued flit 26706
Requeued flit 26768
Requeued flit 26107
Requeued flit 26776
Requeued flit 9888
Requeued flit 15755
Requeued flit 7952
Requeued flit 17974
Requeued flit 25345
Requeued flit 20018
Requeued flit 15964
Requeued flit 26860
Requeued flit 24425
Requeued flit 4773
Requeued flit 11524
Requeued flit 11059
Requeued flit 13603
Requeued flit 14634
Requeued flit 18726
Requeued flit 18682
Requeued flit 5950
Requeued flit 17975
Requeued flit 8907
Requeued flit 18117
Requeued flit 12253
Requeued flit 24599
Requeued flit 10214
Requeued flit 18430
Requeued flit 15929
Requeued flit 17654
Requeued flit 27065
Requeued flit 18245
Requeued flit 10063
Requeued flit 17498
Requeued flit 12838
Requeued flit 16753
Requeued flit 19794
Requeued flit 19182
Requeued flit 14500
Requeued flit 16309
Requeued flit 8647
Requeued flit 13433
Requeued flit 6117
Requeued flit 11162
Requeued flit 5621
Requeued flit 14458
Requeued flit 9222
Requeued flit 9310
Requeued flit 19532
Requeued flit 15313
Requeued flit 18105
Requeued flit 23069
Requeued flit 18644
Requeued flit 27262
Requeued flit 27316
Requeued flit 9864
Requeued flit 18713
Requeued flit 22573
Requeued flit 5639
Requeued flit 8074
Requeued flit 13775
Requeued flit 9840
Requeued flit 10143
Requeued flit 19025
Requeued flit 8820
Requeued flit 12919
Requeued flit 18524
Requeued flit 11301
Requeued flit 13357
Requeued flit 25467
Requeued flit 18427
Requeued flit 19290
Requeued flit 19772
Requeued flit 19075
Requeued flit 23294
Requeued flit 6780
Requeued flit 27529
Requeued flit 16175
Requeued flit 8638
Requeued flit 13353
Requeued flit 25173
Requeued flit 19900
Requeued flit 22047
Requeued flit 18781
Requeued flit 11264
Requeued flit 27641
Requeued flit 12250
Requeued flit 18751
Requeued flit 11594
Requeued flit 16942
Requeued flit 19492
Requeued flit 13538
Requeued flit 18893
Requeued flit 18330
Requeued flit 9956
Requeued flit 8696
Requeued flit 11068
Requeued flit 13964
Requeued flit 23897
Requeued flit 10640
Requeued flit 16598
Requeued flit 15481
Requeued flit 24666
Requeued flit 27798
Requeued flit 8539
Requeued flit 17584
Requeued flit 27822
Requeued flit 27831
Requeued flit 21502
Requeued flit 23085
Requeued flit 10080
Requeued flit 24975
Requeued flit 16992
Requeued flit 22122
Requeued flit 18857
Requeued flit 21199
Requeued flit 14128
Requeued flit 10220
Requeued flit 19747
Requeued flit 24673
Requeued flit 10282
Requeued flit 14868
Requeued flit 7296
Requeued flit 18719
Requeued flit 8124
Requeued flit 6388
Requeued flit 21825
Requeued flit 6133
Requeued flit 14071
Requeued flit 8108
Requeued flit 24577
Requeued flit 6954
Requeued flit 20050
Requeued flit 12231
Requeued flit 13866
Requeued flit 19143
Requeued flit 11278
Requeued flit 19169
Requeued flit 28144
Requeued flit 24455
Requeued flit 7961
Requeued flit 9669
Requeued flit 19567
Requeued flit 12695
Requeued flit 14705
Requeued flit 27978
Requeued flit 18303
Requeued flit 27640
Requeued flit 14335
Requeued flit 18958
Requeued flit 24882
Requeued flit 20886
Requeued flit 17669
Requeued flit 13692
Requeued flit 20043
Requeued flit 25468
Requeued flit 12744
Requeued flit 14087
Requeued flit 14710
Requeued flit 7034
Requeued flit 13241
Requeued flit 28334
Requeued flit 19869
Requeued flit 12419
Requeued flit 24946
Requeued flit 18843
Requeued flit 25141
Requeued flit 9236
Requeued flit 23991
Requeued flit 20105
Requeued flit 25656
Requeued flit 12752
Requeued flit 28109
Requeued flit 11445
Requeued flit 14415
Requeued flit 14597
Requeued flit 16217
Requeued flit 21978
Requeued flit 11892
Requeued flit 15303
Requeued flit 10894
Requeued flit 19119
Requeued flit 28576
Requeued flit 9177
Requeued flit 10048
Requeued flit 11494
Requeued flit 25313
Requeued flit 19217
Requeued flit 19906
Requeued flit 27603
Requeued flit 25334
Requeued flit 20233
Requeued flit 27127
Requeued flit 8273
Requeued flit 25563
Requeued flit 22031
Requeued flit 20121
Requeued flit 19793
Requeued flit 20549
Requeued flit 16922
Requeued flit 28724
Requeued flit 7076
Requeued flit 21064
Requeued flit 28752
Requeued flit 14375
Requeued flit 19739
Requeued flit 27926
Requeued flit 8601
Requeued flit 19564
Requeued flit 19414
Requeued flit 16079
Requeued flit 18840
Requeued flit 12194
Requeued flit 25198
Requeued flit 20336
Requeued flit 28371
Requeued flit 28754
Requeued flit 14398
Requeued flit 26085
Requeued flit 9632
Requeued flit 22424
Requeued flit 19660
Requeued flit 14314
Requeued flit 19921
Requeued flit 25769
Requeued flit 21059
Requeued flit 19121
Requeued flit 19606
Requeued flit 26137
Requeued flit 19557
Requeued flit 28710
Requeued flit 21878
Requeued flit 26422
Requeued flit 23731
Requeued flit 16267
Requeued flit 9052
Requeued flit 13892
Requeued flit 8713
Requeued flit 19186
Requeued flit 19783
Requeued flit 15777
Requeued flit 29082
Requeued flit 16803
Requeued flit 12512
Requeued flit 13557
Requeued flit 21052
Requeued flit 5594
Requeued flit 8555
Requeued flit 12606
Requeued flit 14020
Requeued flit 13929
Requeued flit 10381
Requeued flit 20413
Requeued flit 20419
Requeued flit 9259
Requeued flit 20923
Requeued flit 20438
Requeued flit 13335
Requeued flit 29307
Requeued flit 20725
Requeued flit 21523
Requeued flit 25226
Requeued flit 29275
Requeued flit 29335
Requeued flit 18754
Requeued flit 17171
Requeued flit 10035
Requeued flit 11706
Requeued flit 23214
Requeued flit 19401
Requeued flit 8881
Requeued flit 23552
Requeued flit 14530
Requeued flit 16342
Requeued flit 29298
Requeued flit 18526
Requeued flit 29443
Requeued flit 15601
Requeued flit 14286
Requeued flit 8861
Requeued flit 13225
Requeued flit 23021
Requeued flit 8697
Requeued flit 13184
Requeued flit 27439
Requeued flit 29638
Requeued flit 22739
Requeued flit 19842
Requeued flit 22431
Requeued flit 21167
Requeued flit 14341
Requeued flit 25003
Requeued flit 12374
Requeued flit 6492
Requeued flit 9517
Requeued flit 29728
Requeued flit 10219
Requeued flit 29747
Requeued flit 9311
Requeued flit 19263
Requeued flit 11284
Requeued flit 10754
Requeued flit 14678
Requeued flit 15178
Requeued flit 26259
Requeued flit 27190
Requeued flit 10089
Requeued flit 21112
Requeued flit 27416
Requeued flit 27758
Requeued flit 20595
Requeued flit 23579
Requeued flit 8843
Requeued flit 19204
Requeued flit 19962
Requeued flit 21088
Requeued flit 20853
Requeued flit 14937
Requeued flit 29462
Requeued flit 17009
Requeued flit 22646
Requeued flit 27067
Requeued flit 26527
Requeued flit 26842
Requeued flit 18983
Requeued flit 12989
Requeued flit 26879
Requeued flit 21216
Requeued flit 24081
Requeued flit 10708
Requeued flit 13446
Requeued flit 20401
Requeued flit 30081
Requeued flit 29617
Requeued flit 27683
Requeued flit 9053
Requeued flit 22996
Requeued flit 4798
Requeued flit 18974
Requeued flit 21563
Requeued flit 17206
Requeued flit 23369
Requeued flit 30202
Requeued flit 28323
Requeued flit 7783
Requeued flit 21388
Requeued flit 20423
Requeued flit 23384
Requeued flit 20852
Requeued flit 20311
Requeued flit 15873
Requeued flit 30248
Requeued flit 22410
Requeued flit 15239
Requeued flit 14154
Requeued flit 8818
Requeued flit 30032
Requeued flit 13673
Requeued flit 10189
Requeued flit 17267
Requeued flit 20912
Requeued flit 8915
Requeued flit 19407
Requeued flit 30432
Requeued flit 21721
Requeued flit 10781
Requeued flit 30002
Requeued flit 14673
Requeued flit 20910
Requeued flit 16996
Requeued flit 26424
Requeued flit 27107
Requeued flit 21114
Requeued flit 22815
Requeued flit 27408
Requeued flit 21555
Requeued flit 14862
Requeued flit 14794
Requeued flit 30029
Requeued flit 21225
Requeued flit 30705
Requeued flit 24912
Requeued flit 20943
Requeued flit 30608
Requeued flit 24107
Requeued flit 25068
Requeued flit 14997
Requeued flit 16895
Requeued flit 30706
Requeued flit 25547
Requeued flit 19555
Requeued flit 27787
Requeued flit 20892
Requeued flit 17810
Requeued flit 20718
Requeued flit 30713
Requeued flit 5546
Requeued flit 10454
Requeued flit 30803
Requeued flit 27614
Requeued flit 21343
Requeued flit 24218
Requeued flit 22756
Requeued flit 29283
Requeued flit 13287
Requeued flit 16477
Requeued flit 20988
Requeued flit 24812
Requeued flit 21510
Requeued flit 9710
Requeued flit 22324
Requeued flit 30961
Requeued flit 11161
Requeued flit 27288
Requeued flit 20482
Requeued flit 23321
Requeued flit 30930
Requeued flit 11618
Requeued flit 16619
Requeued flit 22116
Requeued flit 22890
Requeued flit 10189
Requeued flit 13795
Requeued flit 18360
Requeued flit 24098
Requeued flit 22588
Requeued flit 10012
Requeued flit 19847
Requeued flit 18830
Requeued flit 30429
Requeued flit 21728
Requeued flit 31176
Requeued flit 11492
Requeued flit 31007
Requeued flit 17511
Requeued flit 26970
Requeued flit 17363
Requeued flit 28212
Requeued flit 25373
Requeued flit 30563
Requeued flit 7469
Requeued flit 13445
Requeued flit 15187
Requeued flit 12857
Requeued flit 14521
Requeued flit 25549
Requeued flit 21047
Requeued flit 31033
Requeued flit 21929
Requeued flit 21158
Requeued flit 23353
Requeued flit 13433
Requeued flit 25009
Requeued flit 11032
Requeued flit 16117
Requeued flit 14548
Requeued flit 21318
Requeued flit 15790
Requeued flit 18750
Requeued flit 17868
Requeued flit 14779
Requeued flit 25800
Requeued flit 11237
Requeued flit 10322
Requeued flit 26384
Requeued flit 15248
Requeued flit 29556
Requeued flit 28413
Requeued flit 16657
Requeued flit 10166
Requeued flit 11035
Requeued flit 9510
Requeued flit 21491
Requeued flit 11164
Requeued flit 18249
Requeued flit 23200
Requeued flit 11723
Requeued flit 18776
Requeued flit 21044
Requeued flit 12092
Requeued flit 27698
Requeued flit 19648
Requeued flit 20872
Requeued flit 17461
Requeued flit 11270
Requeued flit 31509
Requeued flit 21425
Requeued flit 8478
Requeued flit 11791
Requeued flit 13459
Requeued flit 17056
Requeued flit 21389
Requeued flit 31435
Requeued flit 20165
Requeued flit 20310
Requeued flit 19603
Requeued flit 31586
Requeued flit 28816
Requeued flit 11535
Requeued flit 23368
Requeued flit 17802
Requeued flit 22090
Requeued flit 18010
Requeued flit 22033
Requeued flit 31517
Requeued flit 21071
Requeued flit 15259
Requeued flit 20984
Requeued flit 19847
Requeued flit 10077
Requeued flit 16365
Requeued flit 31694
Requeued flit 12520
Requeued flit 17903
Requeued flit 18929
Requeued flit 31686
Requeued flit 11935
Requeued flit 20810
Requeued flit 9053
Requeued flit 17599
Requeued flit 10791
Requeued flit 28296
Requeued flit 25423
Requeued flit 24636
Requeued flit 14716
Requeued flit 16982
Requeued flit 21348
Requeued flit 23263
Requeued flit 26667
Requeued flit 19889
Requeued flit 29737
Requeued flit 31798
Requeued flit 31565
Requeued flit 28558
Requeued flit 15318
Requeued flit 28467
Requeued flit 13152
Requeued flit 29845
Requeued flit 31963
Requeued flit 31964
Requeued flit 18767
Requeued flit 19180
Requeued flit 21845
Requeued flit 17749
Requeued flit 29017
Requeued flit 25546
Requeued flit 22273
Requeued flit 12159
Requeued flit 14760
Requeued flit 11342
Requeued flit 8478
Requeued flit 13873
Requeued flit 25808
Requeued flit 11352
Requeued flit 22346
Requeued flit 28816
Requeued flit 22474
Requeued flit 32103
Requeued flit 6788
Requeued flit 10294
Requeued flit 22351
Requeued flit 16417
Requeued flit 25430
Requeued flit 21206
Requeued flit 11901
Requeued flit 11972
Requeued flit 10410
Requeued flit 25949
Requeued flit 6411
Requeued flit 15318
Requeued flit 11183
Requeued flit 32274
Requeued flit 24687
Requeued flit 12380
Requeued flit 21974
Requeued flit 19730
Requeued flit 22946
Requeued flit 7346
Requeued flit 16958
Requeued flit 23145
Requeued flit 24976
Requeued flit 18115
Requeued flit 16020
Requeued flit 32507
Requeued flit 31980
Requeued flit 25599
Requeued flit 32283
Requeued flit 20747
Requeued flit 16740
Requeued flit 9147
Requeued flit 11533
Requeued flit 9119
Requeued flit 32515
Requeued flit 32583
Requeued flit 22432
Requeued flit 31609
Requeued flit 28295
Requeued flit 23345
Requeued flit 14232
Requeued flit 32546
Requeued flit 7584
Requeued flit 32633
Requeued flit 32655
Requeued flit 32669
Requeued flit 15042
Requeued flit 22163
Requeued flit 15131
Requeued flit 16106
Requeued flit 32536
Requeued flit 12861
Requeued flit 29087
Requeued flit 19825
Requeued flit 19293
Requeued flit 12601
Requeued flit 22683
Requeued flit 28763
Requeued flit 15438
Requeued flit 18781
Requeued flit 31445
Requeued flit 18943
Requeued flit 27305
Requeued flit 32555
Requeued flit 25188
Requeued flit 17902
Requeued flit 22293
Requeued flit 22415
Requeued flit 24331
Requeued flit 11454
Requeued flit 29847
Requeued flit 16393
Requeued flit 16938
Requeued flit 22658
Requeued flit 15730
Requeued flit 24739
Requeued flit 19626
Requeued flit 13890
Requeued flit 32930
Requeued flit 23337
Requeued flit 29679
Requeued flit 22784
Requeued flit 28664
Requeued flit 11027
Requeued flit 17039
Requeued flit 23125
Requeued flit 15221
Requeued flit 26144
Requeued flit 33064
Requeued flit 18247
Requeued flit 23664
Requeued flit 23181
Requeued flit 18156
Requeued flit 20481
Requeued flit 10936
Requeued flit 29008
Requeued flit 19180
Requeued flit 11113
Requeued flit 24777
Requeued flit 22337
Requeued flit 11455
Requeued flit 22963
Requeued flit 22596
Requeued flit 21774
Requeued flit 28602
Requeued flit 25412
Requeued flit 16670
Requeued flit 22647
Requeued flit 30268
Requeued flit 33184
Requeued flit 23397
Requeued flit 21760
Requeued flit 32945
Requeued flit 28193
Requeued flit 14618
Requeued flit 22423
Requeued flit 19970
Requeued flit 21216
Requeued flit 24779
Requeued flit 11878
Requeued flit 25452
Requeued flit 23708
Requeued flit 24309
Requeued flit 16881
Requeued flit 27833
Requeued flit 23265
Requeued flit 15912
Requeued flit 20586
Requeued flit 13558
Requeued flit 33457
Requeued flit 10304
Requeued flit 10833
Requeued flit 22885
Requeued flit 10866
Requeued flit 11178
Requeued flit 23640
Requeued flit 32825
Requeued flit 21742
Requeued flit 10558
Requeued flit 15313
Requeued flit 23091
Requeued flit 10158
Requeued flit 23787
Requeued flit 28466
Requeued flit 20057
Requeued flit 32599
Requeued flit 6177
Requeued flit 16519
Requeued flit 23154
Requeued flit 20992
Requeued flit 10462
Requeued flit 22423
Requeued flit 12376
Requeued flit 24115
Requeued flit 32822
Requeued flit 25401
Requeued flit 23059
Requeued flit 13146
Requeued flit 27532
Requeued flit 14329
Requeued flit 30500
Requeued flit 16583
Requeued flit 24316
Requeued flit 10188
Requeued flit 29956
Requeued flit 23570
Requeued flit 15681
Requeued flit 33950
Requeued flit 22827
Requeued flit 17605
Requeued flit 6807
Requeued flit 25106
Requeued flit 16541
Requeued flit 5499
Requeued flit 23243
Requeued flit 29429
Requeued flit 24440
Requeued flit 8152
Requeued flit 26029
Requeued flit 19558
Requeued flit 11270
Requeued flit 34040
Requeued flit 33675
Requeued flit 17958
Requeued flit 29505
Requeued flit 22439
Requeued flit 34003
Requeued flit 22151
Requeued flit 14909
Requeued flit 33220
Requeued flit 34023
Requeued flit 12696
Requeued flit 29453
Requeued flit 13716
Requeued flit 34008
Requeued flit 10454
Requeued flit 29967
Requeued flit 34156
Requeued flit 18099
Requeued flit 23764
Requeued flit 15205
Requeued flit 27737
Requeued flit 23234
Requeued flit 16367
Requeued flit 15053
Requeued flit 15926
Requeued flit 12174
Requeued flit 6313
Requeued flit 16056
Requeued flit 24397
Requeued flit 23911
Requeued flit 30380
Requeued flit 33985
Requeued flit 22677
Requeued flit 20586
Requeued flit 12093
Requeued flit 16480
Requeued flit 12486
Requeued flit 12560
Requeued flit 16457
Requeued flit 34364
Requeued flit 23414
Requeued flit 12892
Requeued flit 26106
Requeued flit 12765
Requeued flit 19793
Requeued flit 22967
Requeued flit 11003
Requeued flit 7445
Requeued flit 24167
Requeued flit 18195
Requeued flit 24032
Requeued flit 34472
Requeued flit 21685
Requeued flit 34622
Requeued flit 18564
Requeued flit 22664
Requeued flit 9940
Requeued flit 29072
Requeued flit 24300
Requeued flit 34660
Requeued flit 23878
Requeued flit 15406
Requeued flit 23609
Requeued flit 23693
Requeued flit 24000
Requeued flit 11199
Requeued flit 34734
Requeued flit 8097
Requeued flit 23115
Requeued flit 6758
Requeued flit 28617
Requeued flit 11848
Requeued flit 11738
Requeued flit 23696
Requeued flit 23095
Requeued flit 34735
Requeued flit 19184
Requeued flit 22349
Requeued flit 13465
Requeued flit 26044
Requeued flit 27712
Requeued flit 23286
Requeued flit 24084
Requeued flit 23116
Requeued flit 5403
Requeued flit 17481
Requeued flit 25274
Requeued flit 15726
Requeued flit 12629
Requeued flit 13462
Requeued flit 21676
Requeued flit 22866
Requeued flit 24429
Requeued flit 13494
Requeued flit 22877
Requeued flit 31834
Requeued flit 31712
Requeued flit 31905
Requeued flit 27735
Requeued flit 17141
Requeued flit 35043
Requeued flit 18563
Requeued flit 12185
Requeued flit 13408
Requeued flit 34773
Requeued flit 19595
Requeued flit 20311
Requeued flit 35104
Requeued flit 29821
Requeued flit 14091
Requeued flit 23938
Requeued flit 28134
Requeued flit 17418
Requeued flit 26928
Requeued flit 10636
Requeued flit 24550
Requeued flit 19076
Requeued flit 19261
Requeued flit 26833
Requeued flit 33699
Requeued flit 24336
Requeued flit 30724
Requeued flit 22147
Requeued flit 35205
Requeued flit 27131
Requeued flit 35168
Requeued flit 13073
Requeued flit 35248
Requeued flit 22346
Requeued flit 32452
Requeued flit 25059
Requeued flit 23002
Requeued flit 21022
Requeued flit 35231
Requeued flit 30128
Requeued flit 17813
Requeued flit 11353
Requeued flit 24184
Requeued flit 16755
Requeued flit 25414
Requeued flit 28100
Requeued flit 16494
Requeued flit 21093
Requeued flit 15960
Requeued flit 17540
Requeued flit 23948
Requeued flit 24298
Requeued flit 35446
Requeued flit 35405
Requeued flit 30776
Requeued flit 16575
Requeued flit 24708
Requeued flit 14315
Requeued flit 23697
Requeued flit 27214
Requeued flit 34140
Requeued flit 11534
Requeued flit 30350
Requeued flit 34851
Requeued flit 21357
Requeued flit 9756
Requeued flit 25277
Requeued flit 24282
Requeued flit 21037
Requeued flit 16616
Requeued flit 9926
Requeued flit 30866
Requeued flit 32034
Requeued flit 23950
Requeued flit 10157
Requeued flit 15710
Requeued flit 35721
Requeued flit 27972
Requeued flit 17196
Requeued flit 24192
Requeued flit 27856
Requeued flit 21032
Requeued flit 18397
Requeued flit 31284
Requeued flit 35322
Requeued flit 16715
Requeued flit 23723
Requeued flit 11118
Requeued flit 33183
Requeued flit 31019
Requeued flit 13868
Requeued flit 22474
Requeued flit 13521
Requeued flit 14377
Requeued flit 24848
Requeued flit 35384
Requeued flit 12193
Requeued flit 18481
Requeued flit 10081
Requeued flit 11886
Requeued flit 35867
Requeued flit 19509
Requeued flit 15867
Requeued flit 10953
Requeued flit 24321
Requeued flit 29420
Requeued flit 24230
Requeued flit 17728
Requeued flit 19685
Requeued flit 29024
Requeued flit 11531
Requeued flit 15999
Requeued flit 24892
Requeued flit 24168
Requeued flit 18995
Requeued flit 12146
Requeued flit 36137
Requeued flit 17395
Requeued flit 10721
Requeued flit 35385
Requeued flit 11987
Requeued flit 14557
Requeued flit 24769
Requeued flit 13804
Requeued flit 12898
Requeued flit 31629
Requeued flit 24797
Requeued flit 16410
Requeued flit 36166
Requeued flit 36174
Requeued flit 35809
Requeued flit 36244
Requeued flit 30958
Requeued flit 24834
Requeued flit 33170
Requeued flit 24840
Requeued flit 36171
Requeued flit 30137
Requeued flit 23834
Requeued flit 36314
Requeued flit 34123
Requeued flit 24950
Requeued flit 36228
Requeued flit 10759
Requeued flit 25529
Requeued flit 35564
Requeued flit 13330
Requeued flit 36368
Requeued flit 28474
Requeued flit 24815
Requeued flit 17032
Requeued flit 16811
Requeued flit 33356
Requeued flit 21606
Requeued flit 32290
Requeued flit 18021
Requeued flit 11063
Requeued flit 12924
Requeued flit 25233
Requeued flit 18952
Requeued flit 18151
Requeued flit 25342
Requeued flit 25831
Requeued flit 24859
Requeued flit 16325
Requeued flit 27019
Requeued flit 23137
Requeued flit 26424
Requeued flit 25936
Requeued flit 21217
Requeued flit 33304
Requeued flit 36239
Requeued flit 12154
Requeued flit 10760
Requeued flit 21898
Requeued flit 32750
Requeued flit 11485
Requeued flit 17848
Requeued flit 16293
Requeued flit 11917
Requeued flit 22383
Requeued flit 19533
Requeued flit 8935
Requeued flit 36288
Requeued flit 29078
Requeued flit 12240
Requeued flit 17269
Requeued flit 8821
Requeued flit 13171
Requeued flit 36717
Requeued flit 28394
Requeued flit 17679
Requeued flit 25347
Requeued flit 12570
Requeued flit 36615
Requeued flit 16537
Requeued flit 32405
Requeued flit 28544
Requeued flit 11001
Requeued flit 25099
Requeued flit 25278
Requeued flit 18043
Requeued flit 29040
Requeued flit 25569
Requeued flit 17474
Requeued flit 36503
Requeued flit 33094
Requeued flit 19748
Requeued flit 17356
Requeued flit 17286
Requeued flit 19420
Requeued flit 11122
Requeued flit 10945
Requeued flit 27978
Requeued flit 16821
Requeued flit 8795
Requeued flit 25446
Requeued flit 18092
Requeued flit 9926
Requeued flit 17383
Requeued flit 28830
Requeued flit 11528
Requeued flit 31943
Requeued flit 17653
Requeued flit 36903
Requeued flit 18481
Requeued flit 24807
Requeued flit 30767
Requeued flit 26097
Requeued flit 14475
Requeued flit 23560
Requeued flit 37134
Requeued flit 11839
Requeued flit 11708
Requeued flit 35842
Requeued flit 36239
Requeued flit 32908
Requeued flit 31982
Requeued flit 24918
Requeued flit 20624
Requeued flit 31877
Requeued flit 35474
Requeued flit 32995
Requeued flit 33798
Requeued flit 23846
Requeued flit 20985
Requeued flit 22226
Requeued flit 19997
Requeued flit 26446
Requeued flit 37239
Requeued flit 7724
Requeued flit 29305
Requeued flit 18316
Requeued flit 37387
Requeued flit 25524
Requeued flit 14201
Requeued flit 11930
Requeued flit 23530
Requeued flit 26245
Requeued flit 18520
Requeued flit 12106
Requeued flit 26585
Requeued flit 16201
Requeued flit 37605
Requeued flit 18443
Requeued flit 32871
Requeued flit 25974
Requeued flit 29519
Requeued flit 16146
Requeued flit 25075
Requeued flit 25468
Requeued flit 14926
Requeued flit 29422
Requeued flit 33915
Requeued flit 29855
Requeued flit 23275
Requeued flit 26355
Requeued flit 13511
Requeued flit 12685
Requeued flit 37579
Requeued flit 37647
Requeued flit 22931
Requeued flit 29716
Requeued flit 17431
Requeued flit 37582
Requeued flit 37166
Requeued flit 20837
Requeued flit 11647
Requeued flit 27118
Requeued flit 12293
Requeued flit 11785
Requeued flit 12715
Requeued flit 37939
Requeued flit 13230
Requeued flit 25789
Requeued flit 29635
Requeued flit 37610
Requeued flit 25660
Requeued flit 26303
Requeued flit 25825
Requeued flit 20777
Requeued flit 12813
Requeued flit 25837
Requeued flit 38025
Requeued flit 28801
Requeued flit 26082
Requeued flit 17677
Requeued flit 27782
Requeued flit 15607
Requeued flit 26529
Requeued flit 32296
Requeued flit 16340
Requeued flit 34572
Requeued flit 37378
Requeued flit 12617
Requeued flit 15965
Requeued flit 19923
Requeued flit 17930
Requeued flit 32955
Requeued flit 14128
Requeued flit 33509
Requeued flit 21527
Requeued flit 38186
Requeued flit 14557
Requeued flit 17620
Requeued flit 26017
Requeued flit 25852
Requeued flit 18556
Requeued flit 27857
Requeued flit 11216
Requeued flit 27736
Requeued flit 19693
Requeued flit 26864
Requeued flit 37526
Requeued flit 20793
Requeued flit 17874
Requeued flit 11956
Requeued flit 27962
Requeued flit 38376
Requeued flit 24895
Requeued flit 27199
Requeued flit 25403
Requeued flit 18018
Requeued flit 38077
Requeued flit 31806
Requeued flit 18592
Requeued flit 34948
Requeued flit 33980
Requeued flit 18538
Requeued flit 36877
Requeued flit 26664
Requeued flit 27122
Requeued flit 18294
Requeued flit 26024
Requeued flit 34115
Requeued flit 14585
Requeued flit 26091
Requeued flit 38614
Requeued flit 21065
Requeued flit 33241
Requeued flit 18372
Requeued flit 15782
Requeued flit 18416
Requeued flit 32495
Requeued flit 18374
Requeued flit 12887
Requeued flit 14339
Requeued flit 34242
Requeued flit 15691
Requeued flit 16977
Requeued flit 28010
Requeued flit 18385
Requeued flit 32131
Requeued flit 13888
Requeued flit 11049
Requeued flit 38562
Requeued flit 27158
Requeued flit 35124
Requeued flit 33923
Requeued flit 23132
Requeued flit 14007
Requeued flit 26764
Requeued flit 21454
Requeued flit 30463
Requeued flit 11571
Requeued flit 19440
Requeued flit 28603
Requeued flit 38560
Requeued flit 9978
Requeued flit 36459
Requeued flit 14511
Requeued flit 38985
Requeued flit 24440
Requeued flit 15259
Requeued flit 24292
Requeued flit 33762
Requeued flit 14591
Requeued flit 37667
Requeued flit 12728
Requeued flit 19120
Requeued flit 27721
Requeued flit 19731
Requeued flit 35558
Requeued flit 34903
Requeued flit 27678
Requeued flit 33864
Requeued flit 19929
Requeued flit 23068
Requeued flit 20406
Requeued flit 27531
Requeued flit 13895
Requeued flit 13774
Requeued flit 13747
Requeued flit 28512
Requeued flit 34873
Requeued flit 37792
Requeued flit 28795
Requeued flit 12136
Requeued flit 39335
Requeued flit 29919
Requeued flit 26586
Requeued flit 12769
Requeued flit 39243
Requeued flit 35795
Requeued flit 35676
Requeued flit 32926
Requeued flit 18595
Requeued flit 26036
Requeued flit 27328
Requeued flit 19408
Requeued flit 26609
Requeued flit 28446
Requeued flit 36496
Requeued flit 12398
Requeued flit 12054
Requeued flit 20447
Requeued flit 13869
Requeued flit 26619
Requeued flit 39470
Requeued flit 20107
Requeued flit 19838
Requeued flit 23709
Requeued flit 23412
Requeued flit 36225
Requeued flit 28475
Requeued flit 18901
Requeued flit 26448
Requeued flit 11278
Requeued flit 30199
Requeued flit 26924
Requeued flit 19245
Requeued flit 19578
Requeued flit 15187
Requeued flit 39730
Requeued flit 27406
Requeued flit 27240
Requeued flit 39699
Requeued flit 34903
Requeued flit 11809
Requeued flit 39105
Requeued flit 27369
Requeued flit 21465
Requeued flit 25227
Requeued flit 19525
Requeued flit 31034
Requeued flit 27866
Requeued flit 11507
Requeued flit 28175
Requeued flit 13192
Requeued flit 28012
Requeued flit 39867
Requeued flit 36473
Requeued flit 26811
Requeued flit 27084
Requeued flit 20371
Requeued flit 28102
Requeued flit 23499
Requeued flit 17966
Requeued flit 39758
Requeued flit 19078
Requeued flit 28469
Requeued flit 23037
Requeued flit 22439
Requeued flit 26276
Requeued flit 12599
Requeued flit 15289
Requeued flit 28173
Requeued flit 15600
Requeued flit 31094
Requeued flit 30927
Requeued flit 13852
Requeued flit 39834
Requeued flit 27431
Requeued flit 18978
Requeued flit 12730
Requeued flit 36286
Requeued flit 37099
Requeued flit 13128
Requeued flit 9824
Requeued flit 18915
Requeued flit 13926
Requeued flit 20143
Requeued flit 19048
Requeued flit 12914
Requeued flit 12425
Requeued flit 35221
Requeued flit 14856
Requeued flit 15021
Requeued flit 22295
Requeued flit 27875
Requeued flit 21806
Requeued flit 21329
Requeued flit 27141
Requeued flit 19215
Requeued flit 34809
Requeued flit 27615
Requeued flit 31613
Requeued flit 40034
Requeued flit 14424
Requeued flit 40112
Requeued flit 27364
Requeued flit 18424
Requeued flit 25173
Requeued flit 26950
Requeued flit 13583
Requeued flit 39758
Requeued flit 28470
Requeued flit 27682
Requeued flit 14757
Requeued flit 40384
Requeued flit 27395
Requeued flit 39732
Requeued flit 30335
Requeued flit 34708
Requeued flit 40376
Requeued flit 40383
Requeued flit 27514
Requeued flit 15999
Requeued flit 14496
Requeued flit 39788
Requeued flit 35172
Requeued flit 28429
Requeued flit 40532
Requeued flit 18441
Requeued flit 15495
Requeued flit 36795
Requeued flit 24521
Requeued flit 26252
Requeued flit 20160
Requeued flit 7914
Requeued flit 40069
Requeued flit 24965
Requeued flit 29261
Requeued flit 13200
Requeued flit 19460
Requeued flit 23513
Requeued flit 32351
Requeued flit 13540
Requeued flit 40652
Requeued flit 15579
Requeued flit 29126
Requeued flit 27938
Requeued flit 32790
Requeued flit 8208
Requeued flit 29128
Requeued flit 36903
Requeued flit 19729
Requeued flit 37390
Requeued flit 18771
Requeued flit 36550
Requeued flit 17527
Requeued flit 32205
Requeued flit 28274
Requeued flit 19944
Requeued flit 28194
Requeued flit 40589
Requeued flit 35620
Requeued flit 19138
Requeued flit 19273
Requeued flit 24434
Requeued flit 22748
Requeued flit 39306
Requeued flit 28350
Requeued flit 25580
Requeued flit 29424
Requeued flit 27934
Requeued flit 28114
Requeued flit 28946
Requeued flit 20286
Requeued flit 35513
Requeued flit 26734
Requeued flit 37745
Requeued flit 38494
Requeued flit 40237
Requeued flit 28460
Requeued flit 14519
Requeued flit 28666
Requeued flit 29327
Requeued flit 25745
Requeued flit 22445
Requeued flit 33457
Requeued flit 21329
Requeued flit 41035
Requeued flit 36980
Requeued flit 40974
Requeued flit 25341
Requeued flit 13968
Requeued flit 14745
Requeued flit 36754
Requeued flit 20010
Requeued flit 19108
Requeued flit 8269
Requeued flit 27984
Requeued flit 32359
Requeued flit 24686
Requeued flit 19692
Requeued flit 9608
Requeued flit 41309
Requeued flit 12298
Requeued flit 29070
Requeued flit 40749
Requeued flit 29214
Requeued flit 22393
Requeued flit 30664
Requeued flit 30400
Requeued flit 26779
Requeued flit 34700
Requeued flit 28216
Requeued flit 35779
Requeued flit 8090
[...]
Requeued flit 344150
Requeued flit 239935
Requeued flit 350987
Requeued flit 320633
Requeued flit 246824
Requeued flit 328575
Requeued flit 316130
Requeued flit 264771
Requeued flit 331009
Requeued flit 329565
Requeued flit 264239
Requeued flit 328493
Requeued flit 350329
Requeued flit 345071
Requeued flit 228401
Requeued flit 238302
Requeued flit 300731
Requeued flit 342181
Requeued flit 333033
Requeued flit 335237
Requeued flit 347205
Requeued flit 345965
Requeued flit 354469
Requeued flit 232125
Requeued flit 240430
Requeued flit 359636
Requeued flit 165390
Requeued flit 355621
Requeued flit 323884
Requeued flit 349338
Requeued flit 352572
Requeued flit 199163
Requeued flit 224728
Requeued flit 241505
Requeued flit 331574
Requeued flit 305361
Requeued flit 261088
Requeued flit 316441
Requeued flit 306296
Requeued flit 323470
Requeued flit 331044
Requeued flit 304471
Requeued flit 339778
Requeued flit 185681
Requeued flit 331469
Requeued flit 333387
Requeued flit 353751
Requeued flit 339039
Requeued flit 191926
Requeued flit 294413
Requeued flit 276813
Requeued flit 352872
Requeued flit 358794
Requeued flit 316018
Requeued flit 301743
Requeued flit 297701
Requeued flit 185755
Requeued flit 330677
Requeued flit 302897
Requeued flit 296024
Requeued flit 330561
Requeued flit 353194
Requeued flit 323007
Requeued flit 344799
Requeued flit 331518
Requeued flit 350987
Requeued flit 161252
Requeued flit 303877
Requeued flit 204187
Requeued flit 344689
Requeued flit 244748
Requeued flit 329874
Requeued flit 333654
Requeued flit 312006
Requeued flit 194522
Requeued flit 358150
Requeued flit 304838
Requeued flit 349919
Requeued flit 347800
Requeued flit 342058
Requeued flit 300955
Requeued flit 317389
Requeued flit 238516
Requeued flit 356415
Requeued flit 175084
Requeued flit 357376
Requeued flit 303200
Requeued flit 319970
Requeued flit 340648
Requeued flit 301140
Requeued flit 343811
Requeued flit 349902
Requeued flit 331384
Requeued flit 302776
Requeued flit 332748
Requeued flit 353178
Requeued flit 360861
Requeued flit 337729
Requeued flit 337616
Requeued flit 351775
Requeued flit 339561
Requeued flit 345860
Requeued flit 205642
Requeued flit 358006
Requeued flit 328588
Requeued flit 356665
Requeued flit 347266
Requeued flit 246659
Requeued flit 346328
Requeued flit 352424
Requeued flit 331619
Requeued flit 349199
Requeued flit 334782
Requeued flit 356002
Requeued flit 167751
Requeued flit 345147
Requeued flit 356020
Requeued flit 269237
Requeued flit 296213
Requeued flit 350765
Requeued flit 221407
Requeued flit 329115
Requeued flit 358268
Requeued flit 329388
Requeued flit 223643
Requeued flit 330221
Requeued flit 325510
Requeued flit 224717
Requeued flit 194328
Requeued flit 227482
Requeued flit 345337
Requeued flit 265368
Requeued flit 245567
Requeued flit 183973
Requeued flit 228822
Requeued flit 169340
Requeued flit 356090
Requeued flit 213952
Requeued flit 304129
Requeued flit 347309
Requeued flit 204912
Requeued flit 266399
Requeued flit 338178
Requeued flit 347148
Requeued flit 331960
Requeued flit 325375
Requeued flit 303575
Requeued flit 356326
Requeued flit 331777
Requeued flit 324139
Requeued flit 345457
Requeued flit 250520
Requeued flit 304927
Requeued flit 354905
Requeued flit 303292
Requeued flit 240574
Requeued flit 307907
Requeued flit 267616
Requeued flit 306411
Requeued flit 292401
Requeued flit 243156
Requeued flit 351497
Requeued flit 291055
Requeued flit 292909
Requeued flit 360271
Requeued flit 333955
Requeued flit 346123
Requeued flit 341793
Requeued flit 198086
Requeued flit 306977
Requeued flit 240245
Requeued flit 355852
Requeued flit 248144
Requeued flit 303190
Requeued flit 355073
Requeued flit 318375
Requeued flit 348896
Requeued flit 242803
Requeued flit 291401
Requeued flit 354631
Requeued flit 270737
Requeued flit 330749
Requeued flit 352997
Requeued flit 349616
Requeued flit 352137
Requeued flit 345992
Requeued flit 245106
Requeued flit 267610
Requeued flit 304048
Requeued flit 318635
Requeued flit 324513
Requeued flit 275987
Requeued flit 180644
Requeued flit 322182
Requeued flit 346088
Requeued flit 304919
Requeued flit 180398
Requeued flit 353672
Requeued flit 346286
Requeued flit 327606
Requeued flit 359059
Requeued flit 197083
Requeued flit 217737
Requeued flit 160292
Requeued flit 348435
Requeued flit 303567
Requeued flit 341306
Requeued flit 311322
Requeued flit 357069
Requeued flit 303996
Requeued flit 233489
Requeued flit 194369
Requeued flit 330974
Requeued flit 357338
Requeued flit 303627
Requeued flit 307188
Requeued flit 336862
Requeued flit 347805
Requeued flit 341405
Requeued flit 245106
Requeued flit 264546
Requeued flit 344420
Requeued flit 166552
Requeued flit 346314
Requeued flit 275193
Requeued flit 332029
Requeued flit 241434
Requeued flit 277325
Requeued flit 328560
Requeued flit 362439
Requeued flit 335872
Requeued flit 336275
Requeued flit 172718
Requeued flit 327798
Requeued flit 331309
Requeued flit 236666
Requeued flit 320980
Requeued flit 330414
Requeued flit 197983
Requeued flit 317229
Requeued flit 330989
Requeued flit 348342
Requeued flit 346863
Requeued flit 306037
Requeued flit 333294
Requeued flit 353963
Requeued flit 232244
Requeued flit 180602
Requeued flit 347414
Requeued flit 348634
Requeued flit 361988
Requeued flit 334612
Requeued flit 332038
Requeued flit 328029
Requeued flit 244695
Requeued flit 355065
Requeued flit 331572
Requeued flit 347489
Requeued flit 346667
Requeued flit 353464
Requeued flit 239692
Requeued flit 297828
Requeued flit 199032
Requeued flit 237120
Requeued flit 358166
Requeued flit 238243
Requeued flit 176426
Requeued flit 331839
Requeued flit 211654
Requeued flit 246067
Requeued flit 162555
Requeued flit 174571
Requeued flit 347479
Requeued flit 248010
Requeued flit 363326
Requeued flit 348155
Requeued flit 349854
Requeued flit 169794
Requeued flit 247652
Requeued flit 334795
Requeued flit 302480
Requeued flit 245459
Requeued flit 163309
Requeued flit 333643
Requeued flit 336507
Requeued flit 303639
Requeued flit 172888
Requeued flit 322087
Requeued flit 235103
Requeued flit 300852
Requeued flit 350523
Requeued flit 240987
Requeued flit 303631
Requeued flit 339287
Requeued flit 337866
Requeued flit 334321
Requeued flit 195733
Requeued flit 245250
Requeued flit 361810
Requeued flit 179735
Requeued flit 355135
Requeued flit 333906
Requeued flit 332848
Requeued flit 167397
Requeued flit 258767
Requeued flit 357096
Requeued flit 338614
Requeued flit 243437
Requeued flit 307395
Requeued flit 322354
Requeued flit 270204
Requeued flit 326517
Requeued flit 305432
Requeued flit 362685
Requeued flit 243261
Requeued flit 332404
Requeued flit 330302
Requeued flit 242004
Requeued flit 336968
Requeued flit 304048
Requeued flit 330091
Requeued flit 163224
Requeued flit 255850
Requeued flit 359957
Requeued flit 264103
Requeued flit 332806
Requeued flit 344034
Requeued flit 330416
Requeued flit 262319
Requeued flit 322410
Requeued flit 229919
Requeued flit 208696
Requeued flit 306577
Requeued flit 335088
Requeued flit 171206
Requeued flit 319375
Requeued flit 332139
Requeued flit 306364
Requeued flit 242217
Requeued flit 343912
Requeued flit 348634
Requeued flit 348077
Requeued flit 305171
Requeued flit 180262
Requeued flit 304650
Requeued flit 352955
Requeued flit 317853
Requeued flit 272480
Requeued flit 320337
Requeued flit 182721
Requeued flit 342099
Requeued flit 304048
Requeued flit 349162
Requeued flit 320023
Requeued flit 349945
Requeued flit 225901
Requeued flit 347478
Requeued flit 186576
Requeued flit 333631
Requeued flit 343766
Requeued flit 347047
Requeued flit 353497
Requeued flit 321202
Requeued flit 339285
Requeued flit 347138
Requeued flit 221782
Requeued flit 332241
Requeued flit 347438
Requeued flit 301808
Requeued flit 246630
Requeued flit 341844
Requeued flit 342329
Requeued flit 171710
Requeued flit 330951
Requeued flit 271247
Requeued flit 320431
Requeued flit 317849
Requeued flit 269448
Requeued flit 347354
Requeued flit 243165
Requeued flit 350426
Requeued flit 353985
Requeued flit 334871
Requeued flit 333878
Requeued flit 359473
Requeued flit 307921
Requeued flit 354478
Requeued flit 159973
Requeued flit 329612
Requeued flit 276633
Requeued flit 351724
Requeued flit 240749
Requeued flit 330201
Requeued flit 308246
Requeued flit 183885
Requeued flit 228600
Requeued flit 337515
Requeued flit 235637
Requeued flit 166372
Requeued flit 303777
Requeued flit 305171
Requeued flit 333208
Requeued flit 329750
Requeued flit 335228
Requeued flit 347422
Requeued flit 332711
Requeued flit 271775
Requeued flit 361448
Requeued flit 301808
Requeued flit 293578
Requeued flit 355135
Requeued flit 341654
Requeued flit 331037
Requeued flit 329696
Requeued flit 182244
Requeued flit 355989
Requeued flit 242102
Requeued flit 276453
Requeued flit 352737
Requeued flit 350205
Requeued flit 284565
Requeued flit 353504
Requeued flit 313461
Requeued flit 346444
Requeued flit 320644
Requeued flit 224310
Requeued flit 332403
Requeued flit 328386
Requeued flit 279104
Requeued flit 352029
Requeued flit 356428
Requeued flit 326286
Requeued flit 273063
Requeued flit 301564
Requeued flit 250411
Requeued flit 330298
Requeued flit 331011
Requeued flit 322525
Requeued flit 244686
Requeued flit 171625
Requeued flit 321985
Requeued flit 355244
Requeued flit 304473
Requeued flit 194948
Requeued flit 268611
Requeued flit 338011
Requeued flit 335210
Requeued flit 335116
Requeued flit 332986
Requeued flit 349075
Requeued flit 360981
Requeued flit 212316
Requeued flit 314424
Requeued flit 169428
Requeued flit 237586
Requeued flit 272565
Requeued flit 198894
Requeued flit 266622
Requeued flit 329453
Requeued flit 326141
Requeued flit 174760
Requeued flit 183922
Requeued flit 353192
Requeued flit 334327
Requeued flit 347625
Requeued flit 167873
Requeued flit 361121
Requeued flit 346623
Requeued flit 252106
Requeued flit 336023
Requeued flit 335436
Requeued flit 322817
Requeued flit 236849
Requeued flit 304893
Requeued flit 300998
Requeued flit 172539
Requeued flit 304455
Requeued flit 271994
Requeued flit 332793
Requeued flit 329546
Requeued flit 317800
Requeued flit 307992
Requeued flit 334709
Requeued flit 305163
Requeued flit 220522
Requeued flit 356554
Requeued flit 296855
Requeued flit 357799
Requeued flit 354338
Requeued flit 244376
Requeued flit 305312
Requeued flit 320412
Requeued flit 289176
Requeued flit 326077
Requeued flit 339555
Requeued flit 302868
Requeued flit 265353
Requeued flit 270933
Requeued flit 188401
Requeued flit 359686
Requeued flit 356303
Requeued flit 358974
Requeued flit 347625
Requeued flit 299845
Requeued flit 168655
Requeued flit 319676
Requeued flit 348604
Requeued flit 350740
Requeued flit 327824
Requeued flit 233638
Requeued flit 349129
Requeued flit 347450
Requeued flit 348633
Requeued flit 326752
Requeued flit 305173
Requeued flit 244818
Requeued flit 271563
Requeued flit 359664
Requeued flit 192457
Requeued flit 274225
Requeued flit 238274
Requeued flit 171700
Requeued flit 349844
Requeued flit 331214
Requeued flit 322708
Requeued flit 324138
Requeued flit 361180
Requeued flit 276018
Requeued flit 327939
Requeued flit 304379
Requeued flit 351414
Requeued flit 342413
Requeued flit 307766
Requeued flit 346623
Requeued flit 333209
Requeued flit 336195
Requeued flit 354550
Requeued flit 349753
Requeued flit 335401
Requeued flit 248473
Requeued flit 338345
Requeued flit 306211
Requeued flit 333399
Requeued flit 176885
Requeued flit 304455
Requeued flit 324319
Requeued flit 341865
Requeued flit 325384
Requeued flit 307801
Requeued flit 332296
Requeued flit 348673
Requeued flit 349154
Requeued flit 362187
Requeued flit 308093
Requeued flit 347948
Requeued flit 328942
Requeued flit 180731
Requeued flit 298361
Requeued flit 308904
Requeued flit 198020
Requeued flit 331970
Requeued flit 349245
Requeued flit 334917
Requeued flit 357955
Requeued flit 333618
Requeued flit 332295
Requeued flit 348446
Requeued flit 349635
Requeued flit 360526
Requeued flit 168496
Requeued flit 334618
Requeued flit 348576
Requeued flit 301350
Requeued flit 349517
Requeued flit 183569
Requeued flit 326330
Requeued flit 244560
Requeued flit 173028
Requeued flit 346969
Requeued flit 248184
Requeued flit 359339
Requeued flit 250881
Requeued flit 306339
Requeued flit 335184
Requeued flit 302434
Requeued flit 226058
Requeued flit 309038
Requeued flit 254063
Requeued flit 244161
Requeued flit 240251
Requeued flit 336069
Requeued flit 334879
Requeued flit 321074
Requeued flit 333366
Requeued flit 226703
Requeued flit 356291
Requeued flit 332303
Requeued flit 303795
Requeued flit 298117
Requeued flit 165787
Requeued flit 274881
Requeued flit 347893
Requeued flit 335263
Requeued flit 324998
Requeued flit 363845
Requeued flit 312444
Requeued flit 178293
Requeued flit 333459
Requeued flit 359539
Requeued flit 285618
Requeued flit 304016
Requeued flit 358757
Requeued flit 353170
Requeued flit 334947
Requeued flit 271938
Requeued flit 359602
Requeued flit 364177
Requeued flit 273258
Requeued flit 299017
Requeued flit 168237
Requeued flit 167737
Requeued flit 305637
Requeued flit 358239
Requeued flit 332926
Requeued flit 348857
Requeued flit 335624
Requeued flit 305565
Requeued flit 362511
Requeued flit 305821
Requeued flit 354206
Requeued flit 178120
Requeued flit 330059
Requeued flit 360232
Requeued flit 235113
Requeued flit 237453
Requeued flit 335102
Requeued flit 164279
Requeued flit 182692
Requeued flit 266631
Requeued flit 231367
Requeued flit 171344
Requeued flit 349698
Requeued flit 271039
Requeued flit 228851
Requeued flit 349868
Requeued flit 306815
Requeued flit 318410
Requeued flit 352388
Requeued flit 340032
Requeued flit 330942
Requeued flit 282869
Requeued flit 351481
Requeued flit 182851
Requeued flit 334728
Requeued flit 350729
Requeued flit 295906
Requeued flit 304318
Requeued flit 336857
Requeued flit 358506
Requeued flit 330362
Requeued flit 162391
Requeued flit 349597
Requeued flit 273193
Requeued flit 336032
Requeued flit 347484
Requeued flit 305336
Requeued flit 242750
Requeued flit 349345
Requeued flit 355448
Requeued flit 350081
Requeued flit 336223
Requeued flit 171310
Requeued flit 189648
Requeued flit 275187
Requeued flit 327397
Requeued flit 350640
Requeued flit 169014
Requeued flit 325915
Requeued flit 335405
Requeued flit 252106
Requeued flit 358793
Requeued flit 307278
Requeued flit 362601
Requeued flit 305529
Requeued flit 353632
Requeued flit 357497
Requeued flit 226651
Requeued flit 357500
Requeued flit 332480
Requeued flit 277742
Requeued flit 350009
Requeued flit 176720
Requeued flit 169708
Requeued flit 336563
Requeued flit 304656
Requeued flit 360627
Requeued flit 262750
Requeued flit 355219
Requeued flit 365400
Requeued flit 349463
Requeued flit 353660
Requeued flit 336895
Requeued flit 305850
Requeued flit 238995
Requeued flit 164625
Requeued flit 219386
Requeued flit 334631
Requeued flit 308976
Requeued flit 329225
Requeued flit 350096
Requeued flit 335742
Requeued flit 362704
Requeued flit 234306
Requeued flit 305711
Requeued flit 353533
Requeued flit 334752
Requeued flit 336281
Requeued flit 339337
Requeued flit 175910
Requeued flit 359818
Requeued flit 322764
Requeued flit 305095
Requeued flit 326391
Requeued flit 357090
Requeued flit 363360
Requeued flit 176081
Requeued flit 350062
Requeued flit 354308
Requeued flit 191008
Requeued flit 211341
Requeued flit 307801
Requeued flit 335309
Requeued flit 299017
Requeued flit 180579
Requeued flit 359379
Requeued flit 357257
Requeued flit 345097
Requeued flit 274183
Requeued flit 306356
Requeued flit 351509
Requeued flit 358313
Requeued flit 350116
Requeued flit 265822
Requeued flit 350660
Requeued flit 299140
Requeued flit 327350
Requeued flit 236338
Requeued flit 337058
Requeued flit 336687
Requeued flit 334486
Requeued flit 349445
Requeued flit 340979
Requeued flit 181302
Requeued flit 358673
Requeued flit 322492
Requeued flit 294503
Requeued flit 305540
Requeued flit 355731
Requeued flit 350932
Requeued flit 350258
Requeued flit 354389
Requeued flit 247713
Requeued flit 350174
Requeued flit 172327
Requeued flit 245101
Requeued flit 334889
Requeued flit 349928
Requeued flit 243952
Requeued flit 198850
Requeued flit 359347
Requeued flit 352309
Requeued flit 172055
Requeued flit 271421
Requeued flit 358759
Requeued flit 307449
Requeued flit 334297
Requeued flit 170939
Requeued flit 334023
Requeued flit 351684
Requeued flit 334378
Requeued flit 341549
Requeued flit 360746
Requeued flit 345348
Requeued flit 309169
Requeued flit 335840
Requeued flit 349800
Requeued flit 335761
Requeued flit 355034
Requeued flit 339107
Requeued flit 303428
Requeued flit 299904
Requeued flit 338224
Requeued flit 350110
Requeued flit 243864
Requeued flit 330445
Requeued flit 219859
Requeued flit 249324
Requeued flit 354506
Requeued flit 351398
Requeued flit 334234
Requeued flit 350792
Requeued flit 329126
Requeued flit 352837
Requeued flit 270417
Requeued flit 269211
Requeued flit 334494
Requeued flit 350285
Requeued flit 259240
Requeued flit 349731
Requeued flit 302663
Requeued flit 360702
Requeued flit 306596
Requeued flit 326817
Requeued flit 364345
Requeued flit 335309
Requeued flit 356575
Requeued flit 308114
Requeued flit 346697
Requeued flit 307677
Requeued flit 197872
Requeued flit 335549
Requeued flit 309078
Requeued flit 303315
Requeued flit 306306
Requeued flit 340181
Requeued flit 305218
Requeued flit 342175
Requeued flit 277818
Requeued flit 329598
Requeued flit 358974
Requeued flit 340663
Requeued flit 344182
Requeued flit 275362
Requeued flit 357775
Requeued flit 341553
Requeued flit 309331
Requeued flit 363234
Requeued flit 361695
Requeued flit 352595
Requeued flit 276415
Requeued flit 277971
Requeued flit 240797
Requeued flit 251773
Requeued flit 348454
Requeued flit 296579
Requeued flit 331461
Requeued flit 333390
Requeued flit 229272
Requeued flit 256889
Requeued flit 330283
Requeued flit 329925
Requeued flit 252448
Requeued flit 258814
Requeued flit 305727
Requeued flit 321047
Requeued flit 361865
Requeued flit 278985
Requeued flit 345270
Requeued flit 261532
Requeued flit 243044
Requeued flit 275791
Requeued flit 327608
Requeued flit 325745
Requeued flit 275665
Requeued flit 350445
Requeued flit 333933
Requeued flit 254543
Requeued flit 365235
Requeued flit 367990
Requeued flit 205995
Requeued flit 166905
Requeued flit 174357
Requeued flit 332822
Requeued flit 361343
Requeued flit 306907
Requeued flit 339357
Requeued flit 200820
Requeued flit 343794
Requeued flit 307646
Requeued flit 267634
Requeued flit 335857
Requeued flit 360468
Requeued flit 331784
Requeued flit 333456
Requeued flit 333817
Requeued flit 352278
Requeued flit 310189
Requeued flit 367158
Requeued flit 351357
Requeued flit 305833
Requeued flit 362616
Requeued flit 307012
Requeued flit 246363
Requeued flit 351165
Requeued flit 351336
Requeued flit 338372
Requeued flit 341757
Requeued flit 244578
Requeued flit 307712
Requeued flit 176086
Requeued flit 366155
Requeued flit 334459
Requeued flit 291306
Class 0:
Packet latency average = 1969.73
	minimum = 5
	maximum = 7342
Network latency average = 1629.09
	minimum = 5
	maximum = 7342
Slowest packet = 153907
Flit latency average = 1629.09
	minimum = 5
	maximum = 7342
Slowest flit = 153907
Fragmentation average = 0
	minimum = 0
	maximum = 0
Injected packet rate average = 0.606841
	minimum = 0.4135 (at node 54)
	maximum = 0.8779 (at node 11)
Accepted packet rate average = 0.486847
	minimum = 0.4685 (at node 37)
	maximum = 0.5011 (at node 14)
Injected flit rate average = 0.606841
	minimum = 0.4135 (at node 54)
	maximum = 0.8779 (at node 11)
Accepted flit rate average= 0.486847
	minimum = 0.4685 (at node 37)
	maximum = 0.5011 (at node 14)
Injected packet length average = 1
Accepted packet length average = 1
Total in-flight flits = 76831 (0 measured)
latency change    = 1
throughput change = 1
Average latency for class 0 exceeded 500 cycles. Aborting simulation.
Too many sample periods needed to converge
Simulation unstable, ending ...
Total run time 102.126
