BEGIN Configuration File: examples/ecc_mesh88_config_0_0.010_packet_4
// $Id$

// Copyright (c) 2007-2015, Trustees of The Leland Stanford Junior University
// All rights reserved.
//
// Redistribution and use in source and binary forms, with or without
// modification, are permitted provided that the following conditions are met:
//
// Redistributions of source code must retain the above copyright notice, this
// list of conditions and the following disclaimer.
// Redistributions in binary form must reproduce the above copyright notice,
// this list of conditions and the following disclaimer in the documentation
// and/or other materials provided with the distribution.
//
// THIS SOFTWARE IS PROVIDED BY THE COPYRIGHT HOLDERS AND CONTRIBUTORS "AS IS"
// AND ANY EXPRESS OR IMPLIED WARRANTIES, INCLUDING, BUT NOT LIMITED TO, THE
// IMPLIED WARRANTIES OF MERCHANTABILITY AND FITNESS FOR A PARTICULAR PURPOSE
// ARE DISCLAIMED. IN NO EVENT SHALL THE COPYRIGHT OWNER OR CONTRIBUTORS BE
// LIABLE FOR ANY DIRECT, INDIRECT, INCIDENTAL, SPECIAL, EXEMPLARY, OR
// CONSEQUENTIAL DAMAGES (INCLUDING, BUT NOT LIMITED TO, PROCUREMENT OF
// SUBSTITUTE GOODS OR SERVICES; LOSS OF USE, DATA, OR PROFITS; OR BUSINESS
// INTERRUPTION) HOWEVER CAUSED AND ON ANY THEORY OF LIABILITY, WHETHER IN
// CONTRACT, STRICT LIABILITY, OR TORT (INCLUDING NEGLIGENCE OR OTHERWISE)
// ARISING IN ANY WAY OUT OF THE USE OF THIS SOFTWARE, EVEN IF ADVISED OF THE
// POSSIBILITY OF SUCH DAMAGE.

// Dragonfly
//




vc_buf_size = 256;


wait_for_tail_credit = 0;

//
// Router architecture
//
vc_allocator = separable_input_first; 
sw_allocator = separable_input_first;
alloc_iters  = 1;

credit_delay   = 2;
routing_delay  = 0;
vc_alloc_delay = 1;
sw_alloc_delay = 1;
st_final_delay = 1;

input_speedup     = 1;
output_speedup    = 1;
internal_speedup  = 2.0;


warmup_periods = 3;
sim_count          = 1;

sample_period  = 10000;  


routing_function = dor;
num_vcs     = 2;

priority = none;
traffic       = uniform; 

injection_rate = 0.01;
packet_size = 1;
injection_rate_uses_flits=1;

topology = mesh;

k  = 8;
n  = 2;

fer = 4;
ecc = link;
correctable = 0;

watch_out=-;
watch_file = watch.txt;

ecc = packet;

stats_out = examples/ecc_mesh88_config_0_0.010_packet_4.m;

END Configuration File: examples/ecc_mesh88_config_0_0.010_packet_4
Additional hops: 11
Adding flit 44 as NACK at time 114
Reenqueueing errored packet 44 at time 137
Additional hops: 22
Adding flit 3496 as NACK at time 5594
Reenqueueing errored packet 3496 at time 5617
Additional hops: 34
Adding flit 3577 as NACK at time 5719
Reenqueueing errored packet 3577 at time 5744
Additional hops: 41
Adding flit 4069 as NACK at time 6478
Reenqueueing errored packet 4069 at time 6493
Additional hops: 46
Adding flit 4175 as NACK at time 6630
Reenqueueing errored packet 4175 at time 6641
Additional hops: 56
Adding flit 5461 as NACK at time 8700
Reenqueueing errored packet 5461 at time 8721
Class 0:
Packet latency average = 20.7641
	minimum = 5
	maximum = 101
Network latency average = 20.7169
	minimum = 5
	maximum = 47
Slowest packet = 10
Flit latency average = 20.7169
	minimum = 5
	maximum = 47
Slowest flit = 461
Fragmentation average = 0
	minimum = 0
	maximum = 0
Injected packet rate average = 0.00993125
	minimum = 0.0076 (at node 15)
	maximum = 0.0124 (at node 30)
Accepted packet rate average = 0.00990625
	minimum = 0.008 (at node 52)
	maximum = 0.0121 (at node 34)
Injected flit rate average = 0.00993125
	minimum = 0.0076 (at node 15)
	maximum = 0.0124 (at node 30)
Accepted flit rate average= 0.00990625
	minimum = 0.008 (at node 52)
	maximum = 0.0121 (at node 34)
Injected packet length average = 1
Accepted packet length average = 1
Total in-flight flits = 16 (0 measured)
latency change    = 1
throughput change = 1
Additional hops: 59
Adding flit 11930 as NACK at time 18756
Reenqueueing errored packet 11930 at time 18763
Additional hops: 70
Adding flit 12135 as NACK at time 19099
Reenqueueing errored packet 12135 at time 19122
Class 0:
Packet latency average = 20.6225
	minimum = 5
	maximum = 101
Network latency average = 20.5929
	minimum = 5
	maximum = 47
Slowest packet = 10
Flit latency average = 20.5929
	minimum = 5
	maximum = 47
Slowest flit = 461
Fragmentation average = 0
	minimum = 0
	maximum = 0
Injected packet rate average = 0.00997031
	minimum = 0.00815 (at node 5)
	maximum = 0.0113 (at node 41)
Accepted packet rate average = 0.00995547
	minimum = 0.00825 (at node 36)
	maximum = 0.01135 (at node 14)
Injected flit rate average = 0.00997031
	minimum = 0.00815 (at node 5)
	maximum = 0.0113 (at node 41)
Accepted flit rate average= 0.00995547
	minimum = 0.00825 (at node 36)
	maximum = 0.01135 (at node 14)
Injected packet length average = 1
Accepted packet length average = 1
Total in-flight flits = 19 (0 measured)
latency change    = 0.00686981
throughput change = 0.00494389
Additional hops: 80
Adding flit 14290 as NACK at time 22510
Reenqueueing errored packet 14290 at time 22531
Additional hops: 89
Adding flit 15264 as NACK at time 24032
Reenqueueing errored packet 15264 at time 24051
Additional hops: 98
Adding flit 16901 as NACK at time 26442
Reenqueueing errored packet 16901 at time 26461
Additional hops: 105
Adding flit 17985 as NACK at time 28090
Reenqueueing errored packet 17985 at time 28105
Additional hops: 115
Adding flit 18008 as NACK at time 28131
Reenqueueing errored packet 18008 at time 28152
Class 0:
Packet latency average = 20.8756
	minimum = 5
	maximum = 85
Network latency average = 20.8383
	minimum = 5
	maximum = 47
Slowest packet = 13508
Flit latency average = 20.8383
	minimum = 5
	maximum = 47
Slowest flit = 14490
Fragmentation average = 0
	minimum = 0
	maximum = 0
Injected packet rate average = 0.0100953
	minimum = 0.0074 (at node 54)
	maximum = 0.0122 (at node 31)
Accepted packet rate average = 0.0101063
	minimum = 0.0083 (at node 15)
	maximum = 0.0123 (at node 10)
Injected flit rate average = 0.0100953
	minimum = 0.0074 (at node 54)
	maximum = 0.0122 (at node 31)
Accepted flit rate average= 0.0101063
	minimum = 0.0083 (at node 15)
	maximum = 0.0123 (at node 10)
Injected packet length average = 1
Accepted packet length average = 1
Total in-flight flits = 12 (0 measured)
latency change    = 0.0121262
throughput change = 0.0149196
Warmed up ...Time used is 30000 cycles
Additional hops: 125
Adding flit 19351 as NACK at time 30229
Reenqueueing errored packet 19351 at time 30250
Additional hops: 132
Adding flit 19523 as NACK at time 30493
Reenqueueing errored packet 19523 at time 30508
Additional hops: 136
Adding flit 20737 as NACK at time 32437
Reenqueueing errored packet 20737 at time 32446
Additional hops: 140
Adding flit 21482 as NACK at time 33603
Reenqueueing errored packet 21482 at time 33612
Additional hops: 147
Adding flit 23050 as NACK at time 36029
Reenqueueing errored packet 23050 at time 36044
Additional hops: 156
Adding flit 23608 as NACK at time 36923
Reenqueueing errored packet 23608 at time 36942
Additional hops: 162
Adding flit 24624 as NACK at time 38494
Reenqueueing errored packet 24624 at time 38507
Additional hops: 171
Adding flit 25011 as NACK at time 39110
Reenqueueing errored packet 25011 at time 39129
Additional hops: 176
Adding flit 25305 as NACK at time 39566
Reenqueueing errored packet 25305 at time 39577
Class 0:
Packet latency average = 20.9397
	minimum = 5
	maximum = 85
Network latency average = 20.8875
	minimum = 5
	maximum = 47
Slowest packet = 19316
Flit latency average = 20.8975
	minimum = 5
	maximum = 47
Slowest flit = 19738
Fragmentation average = 0
	minimum = 0
	maximum = 0
Injected packet rate average = 0.00999531
	minimum = 0.0065 (at node 29)
	maximum = 0.0126 (at node 24)
Accepted packet rate average = 0.0099875
	minimum = 0.0079 (at node 43)
	maximum = 0.0119 (at node 10)
Injected flit rate average = 0.00999531
	minimum = 0.0065 (at node 29)
	maximum = 0.0126 (at node 24)
Accepted flit rate average= 0.0099875
	minimum = 0.0079 (at node 43)
	maximum = 0.0119 (at node 10)
Injected packet length average = 1
Accepted packet length average = 1
Total in-flight flits = 17 (17 measured)
latency change    = 0.00306247
throughput change = 0.0118899
Additional hops: 184
Adding flit 29955 as NACK at time 46762
Reenqueueing errored packet 29955 at time 46779
Additional hops: 189
Adding flit 30943 as NACK at time 48344
Reenqueueing errored packet 30943 at time 48355
Additional hops: 190
Adding flit 30988 as NACK at time 48410
Reenqueueing errored packet 30988 at time 48413
Additional hops: 196
Adding flit 31203 as NACK at time 48776
Reenqueueing errored packet 31203 at time 48789
Additional hops: 198
Adding flit 31756 as NACK at time 49634
Reenqueueing errored packet 31756 at time 49639
Class 0:
Packet latency average = 20.8939
	minimum = 5
	maximum = 85
Network latency average = 20.8581
	minimum = 5
	maximum = 47
Slowest packet = 19316
Flit latency average = 20.8632
	minimum = 5
	maximum = 47
Slowest flit = 19738
Fragmentation average = 0
	minimum = 0
	maximum = 0
Injected packet rate average = 0.0100031
	minimum = 0.008 (at node 29)
	maximum = 0.0123 (at node 24)
Accepted packet rate average = 0.0100016
	minimum = 0.00845 (at node 17)
	maximum = 0.0113 (at node 8)
Injected flit rate average = 0.0100031
	minimum = 0.008 (at node 29)
	maximum = 0.0123 (at node 24)
Accepted flit rate average= 0.0100016
	minimum = 0.00845 (at node 17)
	maximum = 0.0113 (at node 8)
Injected packet length average = 1
Accepted packet length average = 1
Total in-flight flits = 14 (14 measured)
latency change    = 0.00219131
throughput change = 0.00140603
Additional hops: 204
Adding flit 32452 as NACK at time 50723
Reenqueueing errored packet 32452 at time 50736
Additional hops: 213
Adding flit 33057 as NACK at time 51632
Reenqueueing errored packet 33057 at time 51651
Additional hops: 219
Adding flit 33968 as NACK at time 53042
Reenqueueing errored packet 33968 at time 53055
Class 0:
Packet latency average = 20.7953
	minimum = 5
	maximum = 85
Network latency average = 20.7656
	minimum = 5
	maximum = 47
Slowest packet = 19316
Flit latency average = 20.769
	minimum = 5
	maximum = 47
Slowest flit = 19738
Fragmentation average = 0
	minimum = 0
	maximum = 0
Injected packet rate average = 0.0100615
	minimum = 0.0082 (at node 18)
	maximum = 0.0116 (at node 24)
Accepted packet rate average = 0.0100604
	minimum = 0.0087 (at node 17)
	maximum = 0.0112 (at node 10)
Injected flit rate average = 0.0100615
	minimum = 0.0082 (at node 18)
	maximum = 0.0116 (at node 24)
Accepted flit rate average= 0.0100604
	minimum = 0.0087 (at node 17)
	maximum = 0.0112 (at node 10)
Injected packet length average = 1
Accepted packet length average = 1
Total in-flight flits = 14 (14 measured)
latency change    = 0.00474334
throughput change = 0.00585007
Draining all recorded packets ...
Draining remaining packets ...
Time taken is 60056 cycles
====== Overall Traffic Statistics ======
====== Traffic class 0 ======
Packet latency average = 20.7995 (1 samples)
	minimum = 5 (1 samples)
	maximum = 85 (1 samples)
Network latency average = 20.7699 (1 samples)
	minimum = 5 (1 samples)
	maximum = 47 (1 samples)
Flit latency average = 20.7723 (1 samples)
	minimum = 5 (1 samples)
	maximum = 47 (1 samples)
Fragmentation average = 0 (1 samples)
	minimum = 0 (1 samples)
	maximum = 0 (1 samples)
Injected packet rate average = 0.0100615 (1 samples)
	minimum = 0.0082 (1 samples)
	maximum = 0.0116 (1 samples)
Accepted packet rate average = 0.0100604 (1 samples)
	minimum = 0.0087 (1 samples)
	maximum = 0.0112 (1 samples)
Injected flit rate average = 0.0100615 (1 samples)
	minimum = 0.0082 (1 samples)
	maximum = 0.0116 (1 samples)
Accepted flit rate average = 0.0100604 (1 samples)
	minimum = 0.0087 (1 samples)
	maximum = 0.0112 (1 samples)
Injected packet size average = 1 (1 samples)
Accepted packet size average = 1 (1 samples)
Hops average = 6.25579 (1 samples)
Total run time 15.7467
