BEGIN Configuration File: examples/ecc_mesh88_config_1_0.100_packet_5
// $Id$

// Copyright (c) 2007-2015, Trustees of The Leland Stanford Junior University
// All rights reserved.
//
// Redistribution and use in source and binary forms, with or without
// modification, are permitted provided that the following conditions are met:
//
// Redistributions of source code must retain the above copyright notice, this
// list of conditions and the following disclaimer.
// Redistributions in binary form must reproduce the above copyright notice,
// this list of conditions and the following disclaimer in the documentation
// and/or other materials provided with the distribution.
//
// THIS SOFTWARE IS PROVIDED BY THE COPYRIGHT HOLDERS AND CONTRIBUTORS "AS IS"
// AND ANY EXPRESS OR IMPLIED WARRANTIES, INCLUDING, BUT NOT LIMITED TO, THE
// IMPLIED WARRANTIES OF MERCHANTABILITY AND FITNESS FOR A PARTICULAR PURPOSE
// ARE DISCLAIMED. IN NO EVENT SHALL THE COPYRIGHT OWNER OR CONTRIBUTORS BE
// LIABLE FOR ANY DIRECT, INDIRECT, INCIDENTAL, SPECIAL, EXEMPLARY, OR
// CONSEQUENTIAL DAMAGES (INCLUDING, BUT NOT LIMITED TO, PROCUREMENT OF
// SUBSTITUTE GOODS OR SERVICES; LOSS OF USE, DATA, OR PROFITS; OR BUSINESS
// INTERRUPTION) HOWEVER CAUSED AND ON ANY THEORY OF LIABILITY, WHETHER IN
// CONTRACT, STRICT LIABILITY, OR TORT (INCLUDING NEGLIGENCE OR OTHERWISE)
// ARISING IN ANY WAY OUT OF THE USE OF THIS SOFTWARE, EVEN IF ADVISED OF THE
// POSSIBILITY OF SUCH DAMAGE.

// Dragonfly
//




vc_buf_size = 256;


wait_for_tail_credit = 0;

//
// Router architecture
//
vc_allocator = separable_input_first; 
sw_allocator = separable_input_first;
alloc_iters  = 1;

credit_delay   = 2;
routing_delay  = 0;
vc_alloc_delay = 1;
sw_alloc_delay = 1;
st_final_delay = 1;

input_speedup     = 1;
output_speedup    = 1;
internal_speedup  = 2.0;


warmup_periods = 3;
sim_count          = 1;

sample_period  = 10000;  


routing_function = dor;
num_vcs     = 2;

priority = none;
traffic       = uniform; 

injection_rate = 0.1;
packet_size = 1;
injection_rate_uses_flits=1;

topology = mesh;

k  = 8;
n  = 2;

fer = 5;
ecc = link;
correctable = 1;

watch_out=-;
watch_file = watch.txt;

ecc = packet;

stats_out = examples/ecc_mesh88_config_1_0.100_packet_5.m;

END Configuration File: examples/ecc_mesh88_config_1_0.100_packet_5
Class 0:
Packet latency average = 21.0681
	minimum = 5
	maximum = 49
Network latency average = 21.0681
	minimum = 5
	maximum = 49
Slowest packet = 6632
Flit latency average = 21.0681
	minimum = 5
	maximum = 49
Slowest flit = 6632
Fragmentation average = 0
	minimum = 0
	maximum = 0
Injected packet rate average = 0.0995531
	minimum = 0.094 (at node 11)
	maximum = 0.1047 (at node 25)
Accepted packet rate average = 0.0993594
	minimum = 0.0927 (at node 36)
	maximum = 0.1047 (at node 51)
Injected flit rate average = 0.0995531
	minimum = 0.094 (at node 11)
	maximum = 0.1047 (at node 25)
Accepted flit rate average= 0.0993594
	minimum = 0.0927 (at node 36)
	maximum = 0.1047 (at node 51)
Injected packet length average = 1
Accepted packet length average = 1
Total in-flight flits = 124 (0 measured)
latency change    = 1
throughput change = 1
Class 0:
Packet latency average = 21.0413
	minimum = 5
	maximum = 49
Network latency average = 21.0413
	minimum = 5
	maximum = 49
Slowest packet = 6632
Flit latency average = 21.0413
	minimum = 5
	maximum = 49
Slowest flit = 6632
Fragmentation average = 0
	minimum = 0
	maximum = 0
Injected packet rate average = 0.0996266
	minimum = 0.09595 (at node 11)
	maximum = 0.1039 (at node 4)
Accepted packet rate average = 0.0995148
	minimum = 0.0954 (at node 46)
	maximum = 0.1037 (at node 1)
Injected flit rate average = 0.0996266
	minimum = 0.09595 (at node 11)
	maximum = 0.1039 (at node 4)
Accepted flit rate average= 0.0995148
	minimum = 0.0954 (at node 46)
	maximum = 0.1037 (at node 1)
Injected packet length average = 1
Accepted packet length average = 1
Total in-flight flits = 143 (0 measured)
latency change    = 0.00127548
throughput change = 0.00156227
Class 0:
Packet latency average = 20.9671
	minimum = 5
	maximum = 50
Network latency average = 20.9671
	minimum = 5
	maximum = 50
Slowest packet = 129131
Flit latency average = 20.9671
	minimum = 5
	maximum = 50
Slowest flit = 129131
Fragmentation average = 0
	minimum = 0
	maximum = 0
Injected packet rate average = 0.0998203
	minimum = 0.0895 (at node 10)
	maximum = 0.1067 (at node 46)
Accepted packet rate average = 0.0998656
	minimum = 0.0931 (at node 57)
	maximum = 0.1064 (at node 8)
Injected flit rate average = 0.0998203
	minimum = 0.0895 (at node 10)
	maximum = 0.1067 (at node 46)
Accepted flit rate average= 0.0998656
	minimum = 0.0931 (at node 57)
	maximum = 0.1064 (at node 8)
Injected packet length average = 1
Accepted packet length average = 1
Total in-flight flits = 114 (0 measured)
latency change    = 0.00353989
throughput change = 0.00351253
Warmed up ...Time used is 30000 cycles
30097 | node29 | Enqueuing flit 192022 (packet 192022) at time 30097.
30097 | traffic_manager | Finding output VC for flit 192022:
30097 | traffic_manager |   Selected output VC 1.
30097 | network_0/router_3_5 | Adding VC range [0,1] at output port 1 for flit 192022 (input port 4, destination 44).
30097 | node29 | Generating lookahead routing info for flit 192022.
30097 | node29 | Injecting flit 192022 into subnet 0 at time 30097 with priority 0.
30098 | network_0/network_0_fchan_ingress29 | Beginning channel traversal for flit 192022 with delay 1.
30098 | network_0/network_0_fchan_ingress29 | Completed channel traversal for flit 192022.
30099 | network_0/router_3_5 | Received flit 192022 from channel at input 4.
30099 | network_0/router_3_5 | Adding flit 192022 to VC 1 at input 4 (state: idle, empty).
30099 | network_0/router_3_5 | Using precomputed lookahead routing information for VC 1 at input 4 (front: 192022).
30099 | network_0/router_3_5/buf_4/vc_1 | Changing state from idle to vc_alloc.
30099 | network_0/router_3_5 | Beginning VC allocation for VC 1 at input 4 (front: 192022).
30099 | network_0/router_3_5 |   Requesting VC 0 at output 1 (in_pri: 0, out_pri: 0).
30099 | network_0/router_3_5 |   Requesting VC 1 at output 1 (in_pri: 0, out_pri: 0).
30099 | network_0/router_3_5/vc_allocator | Input requests = [ 9 -> [ 2@0 3@0 ]  ], output requests = [ 2 -> [ 9@0 ]  3 -> [ 9@0 ]  ].
30099 | network_0/router_3_5/vc_allocator | Input grants = [ 9 -> 2  ], output grants = [ 2 -> 9  ].
30099 | network_0/router_3_5 | Assigning VC 0 at output 1 to VC 1 at input 4.
30099 | network_0/router_3_5 | Completed VC allocation for VC 1 at input 4 (front: 192022).
30099 | network_0/router_3_5 |   Acquiring assigned VC 0 at output 1.
30099 | network_0/router_3_5/buf_4/vc_1 | Changing state from vc_alloc to active.
30099 | network_0/router_3_5 | Beginning switch allocation for VC 1 at input 4 (front: 192022).
30099 | network_0/router_3_5 |   Requesting output 1.0 (non-spec, pri: 0).
30099 | network_0/router_3_5/sw_allocator | Input requests = [ 4 -> [ 1@0 ]  ], output requests = [ 1 -> [ 4@0 ]  ].
30099 | network_0/router_3_5/sw_allocator | Input grants = [ 4 -> 1  ], output grants = [ 1 -> 4  ].
30099 | network_0/router_3_5 | Assigning output 1.0 to VC 1 at input 4.0.
30099 | network_0/router_3_5 | Completed switch allocation for VC 1 at input 4 (front: 192022).
30099 | network_0/router_3_5 |   Scheduling switch connection from input 4.0 to output 1.0.
30099 | network_0/router_3_5 | Updating lookahead routing information for flit 192022.
30099 | network_0/router_3_4 | Adding VC range [0,1] at output port 2 for flit 192022 (input port 0, destination 44).
30100 | network_0/router_3_5 | Beginning crossbar traversal for flit 192022 from input 4.0 to output 1.0.
30100 | network_0/router_3_5 | Completed crossbar traversal for flit 192022 from input 4.0 to output 1.0.
30100 | network_0/router_3_5 | Buffering flit 192022 at output 1.
30100 | network_0/router_3_5 | Sending flit 192022 to channel at output 1.
30101 | network_0/network_0_fchan_117 | Beginning channel traversal for flit 192022 with delay 1.
30101 | network_0/network_0_fchan_117 | Completed channel traversal for flit 192022.
30102 | network_0/router_3_4 | Received flit 192022 from channel at input 0.
30102 | network_0/router_3_4 | Adding flit 192022 to VC 0 at input 0 (state: idle, empty).
30102 | network_0/router_3_4 | Using precomputed lookahead routing information for VC 0 at input 0 (front: 192022).
30102 | network_0/router_3_4/buf_0/vc_0 | Changing state from idle to vc_alloc.
30102 | network_0/router_3_4 | Beginning VC allocation for VC 0 at input 0 (front: 192022).
30102 | network_0/router_3_4 |   Requesting VC 0 at output 2 (in_pri: 0, out_pri: 0).
30102 | network_0/router_3_4 |   Requesting VC 1 at output 2 (in_pri: 0, out_pri: 0).
30102 | network_0/router_3_4/vc_allocator | Input requests = [ 0 -> [ 4@0 5@0 ]  ], output requests = [ 4 -> [ 0@0 ]  5 -> [ 0@0 ]  ].
30102 | network_0/router_3_4/vc_allocator | Input grants = [ 0 -> 4  ], output grants = [ 4 -> 0  ].
30102 | network_0/router_3_4 | Assigning VC 0 at output 2 to VC 0 at input 0.
30102 | network_0/router_3_4 | Completed VC allocation for VC 0 at input 0 (front: 192022).
30102 | network_0/router_3_4 |   Acquiring assigned VC 0 at output 2.
30102 | network_0/router_3_4/buf_0/vc_0 | Changing state from vc_alloc to active.
30102 | network_0/router_3_4 | Beginning switch allocation for VC 0 at input 0 (front: 192022).
30102 | network_0/router_3_4 |   Requesting output 2.0 (non-spec, pri: 0).
30102 | network_0/router_3_4/sw_allocator | Input requests = [ 0 -> [ 2@0 ]  ], output requests = [ 2 -> [ 0@0 ]  ].
30102 | network_0/router_3_4/sw_allocator | Input grants = [ 0 -> 2  ], output grants = [ 2 -> 0  ].
30102 | network_0/router_3_4 | Assigning output 2.0 to VC 0 at input 0.0.
30102 | network_0/router_3_4 | Completed switch allocation for VC 0 at input 0 (front: 192022).
30102 | network_0/router_3_4 |   Scheduling switch connection from input 0.0 to output 2.0.
30102 | network_0/router_3_4 | Updating lookahead routing information for flit 192022.
30102 | network_0/router_4_4 | Adding VC range [0,1] at output port 2 for flit 192022 (input port 3, destination 44).
30103 | network_0/router_3_4 | Beginning crossbar traversal for flit 192022 from input 0.0 to output 2.0.
30103 | network_0/router_3_4 | Completed crossbar traversal for flit 192022 from input 0.0 to output 2.0.
30103 | network_0/router_3_4 | Buffering flit 192022 at output 2.
30103 | network_0/router_3_4 | Sending flit 192022 to channel at output 2.
30104 | network_0/network_0_fchan_114 | Beginning channel traversal for flit 192022 with delay 1.
30104 | network_0/network_0_fchan_114 | Completed channel traversal for flit 192022.
30105 | network_0/router_4_4 | Received flit 192022 from channel at input 3.
30105 | network_0/router_4_4 | Adding flit 192022 to VC 0 at input 3 (state: idle, empty).
30105 | network_0/router_4_4 | Using precomputed lookahead routing information for VC 0 at input 3 (front: 192022).
30105 | network_0/router_4_4/buf_3/vc_0 | Changing state from idle to vc_alloc.
30105 | network_0/router_4_4 | Beginning VC allocation for VC 0 at input 3 (front: 192022).
30105 | network_0/router_4_4 |   Requesting VC 0 at output 2 (in_pri: 0, out_pri: 0).
30105 | network_0/router_4_4 |   Requesting VC 1 at output 2 (in_pri: 0, out_pri: 0).
30105 | network_0/router_4_4/vc_allocator | Input requests = [ 1 -> [ 6@0 7@0 ]  6 -> [ 4@0 5@0 ]  ], output requests = [ 4 -> [ 6@0 ]  5 -> [ 6@0 ]  6 -> [ 1@0 ]  7 -> [ 1@0 ]  ].
30105 | network_0/router_4_4/vc_allocator | Input grants = [ 1 -> 6  6 -> 4  ], output grants = [ 4 -> 6  6 -> 1  ].
30105 | network_0/router_4_4 | Assigning VC 0 at output 2 to VC 0 at input 3.
30105 | network_0/router_4_4 | Completed VC allocation for VC 0 at input 3 (front: 192022).
30105 | network_0/router_4_4 |   Acquiring assigned VC 0 at output 2.
30105 | network_0/router_4_4/buf_3/vc_0 | Changing state from vc_alloc to active.
30105 | network_0/router_4_4 | Beginning switch allocation for VC 0 at input 3 (front: 192022).
30105 | network_0/router_4_4 |   Requesting output 2.0 (non-spec, pri: 0).
30105 | network_0/router_4_4/sw_allocator | Input requests = [ 0 -> [ 3@0 ]  3 -> [ 2@0 ]  ], output requests = [ 2 -> [ 3@0 ]  3 -> [ 0@0 ]  ].
30105 | network_0/router_4_4/sw_allocator | Input grants = [ 0 -> 3  3 -> 2  ], output grants = [ 2 -> 3  3 -> 0  ].
30105 | network_0/router_4_4 | Assigning output 2.0 to VC 0 at input 3.0.
30105 | network_0/router_4_4 | Completed switch allocation for VC 0 at input 3 (front: 192022).
30105 | network_0/router_4_4 |   Scheduling switch connection from input 3.0 to output 2.0.
30105 | network_0/router_4_4 | Updating lookahead routing information for flit 192022.
30105 | network_0/router_5_4 | Adding VC range [0,1] at output port 4 for flit 192022 (input port 3, destination 44).
30106 | network_0/router_4_4 | Beginning crossbar traversal for flit 192022 from input 3.0 to output 2.0.
30106 | network_0/router_4_4 | Completed crossbar traversal for flit 192022 from input 3.0 to output 2.0.
30106 | network_0/router_4_4 | Buffering flit 192022 at output 2.
30106 | network_0/router_4_4 | Sending flit 192022 to channel at output 2.
30107 | network_0/network_0_fchan_146 | Beginning channel traversal for flit 192022 with delay 1.
30107 | network_0/network_0_fchan_146 | Completed channel traversal for flit 192022.
30108 | network_0/router_5_4 | Received flit 192022 from channel at input 3.
30108 | network_0/router_5_4 | Adding flit 192022 to VC 0 at input 3 (state: idle, empty).
30108 | network_0/router_5_4 | Using precomputed lookahead routing information for VC 0 at input 3 (front: 192022).
30108 | network_0/router_5_4/buf_3/vc_0 | Changing state from idle to vc_alloc.
30108 | network_0/router_5_4 | Beginning VC allocation for VC 0 at input 3 (front: 192022).
30108 | network_0/router_5_4 |   Requesting VC 0 at output 4 (in_pri: 0, out_pri: 0).
30108 | network_0/router_5_4 |   Requesting VC 1 at output 4 (in_pri: 0, out_pri: 0).
30108 | network_0/router_5_4/vc_allocator | Input requests = [ 6 -> [ 8@0 9@0 ]  ], output requests = [ 8 -> [ 6@0 ]  9 -> [ 6@0 ]  ].
30108 | network_0/router_5_4/vc_allocator | Input grants = [ 6 -> 8  ], output grants = [ 8 -> 6  ].
30108 | network_0/router_5_4 | Assigning VC 0 at output 4 to VC 0 at input 3.
30108 | network_0/router_5_4 | Completed VC allocation for VC 0 at input 3 (front: 192022).
30108 | network_0/router_5_4 |   Acquiring assigned VC 0 at output 4.
30108 | network_0/router_5_4/buf_3/vc_0 | Changing state from vc_alloc to active.
30108 | network_0/router_5_4 | Beginning switch allocation for VC 0 at input 3 (front: 192022).
30108 | network_0/router_5_4 |   Requesting output 4.0 (non-spec, pri: 0).
30108 | network_0/router_5_4/sw_allocator | Input requests = [ 3 -> [ 4@0 ]  ], output requests = [ 4 -> [ 3@0 ]  ].
30108 | network_0/router_5_4/sw_allocator | Input grants = [ 3 -> 4  ], output grants = [ 4 -> 3  ].
30108 | network_0/router_5_4 | Assigning output 4.0 to VC 0 at input 3.0.
30108 | network_0/router_5_4 | Completed switch allocation for VC 0 at input 3 (front: 192022).
30108 | network_0/router_5_4 |   Scheduling switch connection from input 3.0 to output 4.0.
30109 | network_0/router_5_4 | Beginning crossbar traversal for flit 192022 from input 3.0 to output 4.0.
30109 | network_0/router_5_4 | Completed crossbar traversal for flit 192022 from input 3.0 to output 4.0.
30109 | network_0/router_5_4 | Buffering flit 192022 at output 4.
30109 | network_0/router_5_4 | Sending flit 192022 to channel at output 4.
30110 | network_0/network_0_fchan_egress44 | Beginning channel traversal for flit 192022 with delay 1.
30110 | network_0/network_0_fchan_egress44 | Completed channel traversal for flit 192022.
30111 | node44 | Ejecting flit 192022 (packet 192022) from VC 0.
30111 | node44 | Injecting credit for VC 0 into subnet 0.
30111 | node44 | Retiring flit 192022 (packet 192022, src = 29, dest = 44, hops = 4, flat = 14).
30111 | node44 | Retiring packet 192022 (plat = 14, nlat = 14, frag = 0, src = 29, dest = 44).
Class 0:
Packet latency average = 21.0387
	minimum = 5
	maximum = 52
Network latency average = 21.0387
	minimum = 5
	maximum = 52
Slowest packet = 226130
Flit latency average = 21.0457
	minimum = 5
	maximum = 52
Slowest flit = 226130
Fragmentation average = 0
	minimum = 0
	maximum = 0
Injected packet rate average = 0.0995828
	minimum = 0.0896 (at node 29)
	maximum = 0.1066 (at node 58)
Accepted packet rate average = 0.0995438
	minimum = 0.0923 (at node 21)
	maximum = 0.1055 (at node 28)
Injected flit rate average = 0.0995828
	minimum = 0.0896 (at node 29)
	maximum = 0.1066 (at node 58)
Accepted flit rate average= 0.0995438
	minimum = 0.0923 (at node 21)
	maximum = 0.1055 (at node 28)
Injected packet length average = 1
Accepted packet length average = 1
Total in-flight flits = 139 (139 measured)
latency change    = 0.0034041
throughput change = 0.0032335
Class 0:
Packet latency average = 21.0097
	minimum = 5
	maximum = 52
Network latency average = 21.0097
	minimum = 5
	maximum = 52
Slowest packet = 226130
Flit latency average = 21.0132
	minimum = 5
	maximum = 52
Slowest flit = 226130
Fragmentation average = 0
	minimum = 0
	maximum = 0
Injected packet rate average = 0.0998008
	minimum = 0.09555 (at node 43)
	maximum = 0.10495 (at node 37)
Accepted packet rate average = 0.0997695
	minimum = 0.09295 (at node 21)
	maximum = 0.1048 (at node 28)
Injected flit rate average = 0.0998008
	minimum = 0.09555 (at node 43)
	maximum = 0.10495 (at node 37)
Accepted flit rate average= 0.0997695
	minimum = 0.09295 (at node 21)
	maximum = 0.1048 (at node 28)
Injected packet length average = 1
Accepted packet length average = 1
Total in-flight flits = 154 (154 measured)
latency change    = 0.00137862
throughput change = 0.00226303
Class 0:
Packet latency average = 20.9763
	minimum = 5
	maximum = 52
Network latency average = 20.9763
	minimum = 5
	maximum = 52
Slowest packet = 226130
Flit latency average = 20.9787
	minimum = 5
	maximum = 52
Slowest flit = 226130
Fragmentation average = 0
	minimum = 0
	maximum = 0
Injected packet rate average = 0.0999026
	minimum = 0.0968667 (at node 34)
	maximum = 0.1047 (at node 37)
Accepted packet rate average = 0.0998896
	minimum = 0.0948667 (at node 21)
	maximum = 0.105 (at node 52)
Injected flit rate average = 0.0999026
	minimum = 0.0968667 (at node 34)
	maximum = 0.1047 (at node 37)
Accepted flit rate average= 0.0998896
	minimum = 0.0948667 (at node 21)
	maximum = 0.105 (at node 52)
Injected packet length average = 1
Accepted packet length average = 1
Total in-flight flits = 139 (139 measured)
latency change    = 0.00159349
throughput change = 0.00120185
Draining all recorded packets ...
Draining remaining packets ...
Time taken is 60076 cycles
====== Overall Traffic Statistics ======
====== Traffic class 0 ======
Packet latency average = 20.9786 (1 samples)
	minimum = 5 (1 samples)
	maximum = 52 (1 samples)
Network latency average = 20.9786 (1 samples)
	minimum = 5 (1 samples)
	maximum = 52 (1 samples)
Flit latency average = 20.9818 (1 samples)
	minimum = 5 (1 samples)
	maximum = 52 (1 samples)
Fragmentation average = 0 (1 samples)
	minimum = 0 (1 samples)
	maximum = 0 (1 samples)
Injected packet rate average = 0.0999026 (1 samples)
	minimum = 0.0968667 (1 samples)
	maximum = 0.1047 (1 samples)
Accepted packet rate average = 0.0998896 (1 samples)
	minimum = 0.0948667 (1 samples)
	maximum = 0.105 (1 samples)
Injected flit rate average = 0.0999026 (1 samples)
	minimum = 0.0968667 (1 samples)
	maximum = 0.1047 (1 samples)
Accepted flit rate average = 0.0998896 (1 samples)
	minimum = 0.0948667 (1 samples)
	maximum = 0.105 (1 samples)
Injected packet size average = 1 (1 samples)
Accepted packet size average = 1 (1 samples)
Hops average = 6.24828 (1 samples)
Total run time 98.3101
