BEGIN Configuration File: examples/ecc_mesh88_config_0_0.200_packet_3
// $Id$

// Copyright (c) 2007-2015, Trustees of The Leland Stanford Junior University
// All rights reserved.
//
// Redistribution and use in source and binary forms, with or without
// modification, are permitted provided that the following conditions are met:
//
// Redistributions of source code must retain the above copyright notice, this
// list of conditions and the following disclaimer.
// Redistributions in binary form must reproduce the above copyright notice,
// this list of conditions and the following disclaimer in the documentation
// and/or other materials provided with the distribution.
//
// THIS SOFTWARE IS PROVIDED BY THE COPYRIGHT HOLDERS AND CONTRIBUTORS "AS IS"
// AND ANY EXPRESS OR IMPLIED WARRANTIES, INCLUDING, BUT NOT LIMITED TO, THE
// IMPLIED WARRANTIES OF MERCHANTABILITY AND FITNESS FOR A PARTICULAR PURPOSE
// ARE DISCLAIMED. IN NO EVENT SHALL THE COPYRIGHT OWNER OR CONTRIBUTORS BE
// LIABLE FOR ANY DIRECT, INDIRECT, INCIDENTAL, SPECIAL, EXEMPLARY, OR
// CONSEQUENTIAL DAMAGES (INCLUDING, BUT NOT LIMITED TO, PROCUREMENT OF
// SUBSTITUTE GOODS OR SERVICES; LOSS OF USE, DATA, OR PROFITS; OR BUSINESS
// INTERRUPTION) HOWEVER CAUSED AND ON ANY THEORY OF LIABILITY, WHETHER IN
// CONTRACT, STRICT LIABILITY, OR TORT (INCLUDING NEGLIGENCE OR OTHERWISE)
// ARISING IN ANY WAY OUT OF THE USE OF THIS SOFTWARE, EVEN IF ADVISED OF THE
// POSSIBILITY OF SUCH DAMAGE.

// Dragonfly
//




vc_buf_size = 256;


wait_for_tail_credit = 0;

//
// Router architecture
//
vc_allocator = separable_input_first; 
sw_allocator = separable_input_first;
alloc_iters  = 1;

credit_delay   = 2;
routing_delay  = 0;
vc_alloc_delay = 1;
sw_alloc_delay = 1;
st_final_delay = 1;

input_speedup     = 1;
output_speedup    = 1;
internal_speedup  = 2.0;


warmup_periods = 3;
sim_count          = 1;

sample_period  = 10000;  


routing_function = dor;
num_vcs     = 2;

priority = none;
traffic       = uniform; 

injection_rate = 0.2;
packet_size = 1;
injection_rate_uses_flits=1;

topology = mesh;

k  = 8;
n  = 2;

fer = 3;
ecc = link;
correctable = 0;

watch_out=-;
watch_file = watch.txt;

ecc = packet;

stats_out = examples/ecc_mesh88_config_0_0.200_packet_3.m;

END Configuration File: examples/ecc_mesh88_config_0_0.200_packet_3
Additional hops: 4
Adding flit 453 as NACK at time 51
Additional hops: 14
Adding flit 273 as NACK at time 54
Reenqueueing errored packet 453 at time 60
Additional hops: 18
Adding flit 610 as NACK at time 61
Additional hops: 25
Adding flit 447 as NACK at time 62
Reenqueueing errored packet 610 at time 70
Additional hops: 31
Adding flit 683 as NACK at time 73
Additional hops: 42
Adding flit 491 as NACK at time 74
Reenqueueing errored packet 273 at time 75
Reenqueueing errored packet 447 at time 77
Additional hops: 49
Adding flit 761 as NACK at time 83
Reenqueueing errored packet 683 at time 86
Reenqueueing errored packet 491 at time 97
Reenqueueing errored packet 761 at time 98
Additional hops: 55
Adding flit 995 as NACK at time 98
Reenqueueing errored packet 995 at time 111
Additional hops: 59
Adding flit 1331 as NACK at time 119
Additional hops: 72
Adding flit 1032 as NACK at time 121
Reenqueueing errored packet 1331 at time 128
Additional hops: 81
Adding flit 1423 as NACK at time 141
Additional hops: 85
Adding flit 1630 as NACK at time 144
Reenqueueing errored packet 1032 at time 148
Reenqueueing errored packet 1630 at time 153
Reenqueueing errored packet 1423 at time 160
Additional hops: 95
Adding flit 1747 as NACK at time 170
Additional hops: 96
Adding flit 2258 as NACK at time 185
Reenqueueing errored packet 2258 at time 188
Additional hops: 103
Adding flit 2075 as NACK at time 190
Reenqueueing errored packet 1747 at time 191
Reenqueueing errored packet 2075 at time 205
Additional hops: 112
Adding flit 2694 as NACK at time 244
Additional hops: 114
Adding flit 3059 as NACK at time 251
Additional hops: 121
Adding flit 2889 as NACK at time 253
Reenqueueing errored packet 3059 at time 256
Reenqueueing errored packet 2694 at time 263
Reenqueueing errored packet 2889 at time 268
Additional hops: 126
Adding flit 3226 as NACK at time 273
Additional hops: 132
Adding flit 3222 as NACK at time 274
Additional hops: 138
Adding flit 3290 as NACK at time 280
Reenqueueing errored packet 3226 at time 284
Reenqueueing errored packet 3222 at time 287
Additional hops: 145
Adding flit 3355 as NACK at time 289
Additional hops: 156
Adding flit 3233 as NACK at time 290
Reenqueueing errored packet 3290 at time 293
Reenqueueing errored packet 3355 at time 304
Reenqueueing errored packet 3233 at time 313
Additional hops: 162
Adding flit 3912 as NACK at time 329
Additional hops: 168
Adding flit 3898 as NACK at time 330
Reenqueueing errored packet 3912 at time 342
Reenqueueing errored packet 3898 at time 343
Additional hops: 173
Adding flit 4180 as NACK at time 345
Additional hops: 178
Adding flit 4189 as NACK at time 347
Reenqueueing errored packet 4180 at time 356
Reenqueueing errored packet 4189 at time 358
Additional hops: 188
Adding flit 4268 as NACK at time 368
Reenqueueing errored packet 4268 at time 389
Additional hops: 190
Adding flit 5095 as NACK at time 410
Reenqueueing errored packet 5095 at time 415
Additional hops: 198
Adding flit 5041 as NACK at time 425
Additional hops: 208
Adding flit 5047 as NACK at time 432
Reenqueueing errored packet 5041 at time 442
Reenqueueing errored packet 5047 at time 453
Additional hops: 216
Adding flit 5494 as NACK at time 459
Reenqueueing errored packet 5494 at time 476
Additional hops: 222
Adding flit 6118 as NACK at time 504
Additional hops: 228
Adding flit 6149 as NACK at time 506
Additional hops: 235
Adding flit 6166 as NACK at time 511
Reenqueueing errored packet 6118 at time 517
Reenqueueing errored packet 6149 at time 519
Reenqueueing errored packet 6166 at time 526
Additional hops: 239
Adding flit 6826 as NACK at time 553
Additional hops: 245
Adding flit 6765 as NACK at time 555
Reenqueueing errored packet 6826 at time 562
Additional hops: 250
Adding flit 6955 as NACK at time 566
Reenqueueing errored packet 6765 at time 568
Additional hops: 255
Adding flit 6986 as NACK at time 568
Additional hops: 261
Adding flit 6990 as NACK at time 571
Additional hops: 264
Adding flit 7114 as NACK at time 572
Reenqueueing errored packet 6955 at time 577
Reenqueueing errored packet 7114 at time 579
Reenqueueing errored packet 6986 at time 579
Reenqueueing errored packet 6990 at time 584
Additional hops: 270
Adding flit 7125 as NACK at time 584
Additional hops: 274
Adding flit 7310 as NACK at time 591
Reenqueueing errored packet 7125 at time 597
Reenqueueing errored packet 7310 at time 600
Additional hops: 282
Adding flit 7424 as NACK at time 613
Additional hops: 294
Adding flit 7412 as NACK at time 626
Reenqueueing errored packet 7424 at time 630
Additional hops: 300
Adding flit 7725 as NACK at time 630
Additional hops: 307
Adding flit 7678 as NACK at time 630
Additional hops: 314
Adding flit 7674 as NACK at time 631
Reenqueueing errored packet 7725 at time 643
Reenqueueing errored packet 7678 at time 645
Reenqueueing errored packet 7674 at time 646
Reenqueueing errored packet 7412 at time 651
Additional hops: 320
Adding flit 8286 as NACK at time 672
Additional hops: 327
Adding flit 8315 as NACK at time 679
Reenqueueing errored packet 8286 at time 685
Additional hops: 335
Adding flit 8344 as NACK at time 685
Reenqueueing errored packet 8315 at time 694
Reenqueueing errored packet 8344 at time 702
Additional hops: 344
Adding flit 8722 as NACK at time 715
Additional hops: 351
Adding flit 8820 as NACK at time 716
Additional hops: 354
Adding flit 8999 as NACK at time 717
Reenqueueing errored packet 8999 at time 724
Reenqueueing errored packet 8820 at time 731
Additional hops: 365
Adding flit 8863 as NACK at time 731
Reenqueueing errored packet 8722 at time 734
Additional hops: 378
Adding flit 8884 as NACK at time 741
Reenqueueing errored packet 8863 at time 754
Additional hops: 386
Adding flit 9265 as NACK at time 755
Additional hops: 393
Adding flit 9323 as NACK at time 757
Additional hops: 399
Adding flit 9372 as NACK at time 758
Reenqueueing errored packet 8884 at time 768
Reenqueueing errored packet 9372 at time 771
Additional hops: 407
Adding flit 9485 as NACK at time 771
Reenqueueing errored packet 9323 at time 772
Reenqueueing errored packet 9265 at time 772
Additional hops: 414
Adding flit 9550 as NACK at time 774
Additional hops: 423
Adding flit 9626 as NACK at time 786
Reenqueueing errored packet 9485 at time 788
Reenqueueing errored packet 9550 at time 789
Additional hops: 433
Adding flit 9705 as NACK at time 794
Additional hops: 438
Adding flit 10004 as NACK at time 804
Reenqueueing errored packet 9626 at time 805
Additional hops: 447
Adding flit 9868 as NACK at time 807
Reenqueueing errored packet 10004 at time 815
Reenqueueing errored packet 9705 at time 815
Reenqueueing errored packet 9868 at time 826
Additional hops: 457
Adding flit 10306 as NACK at time 840
Additional hops: 468
Adding flit 10362 as NACK at time 847
Additional hops: 476
Adding flit 10500 as NACK at time 850
Reenqueueing errored packet 10306 at time 861
Additional hops: 480
Adding flit 10823 as NACK at time 865
Reenqueueing errored packet 10500 at time 867
Additional hops: 488
Adding flit 10693 as NACK at time 867
Additional hops: 494
Adding flit 10777 as NACK at time 868
Reenqueueing errored packet 10362 at time 870
Reenqueueing errored packet 10823 at time 874
Reenqueueing errored packet 10777 at time 881
Reenqueueing errored packet 10693 at time 884
Additional hops: 504
Adding flit 10910 as NACK at time 891
Additional hops: 508
Adding flit 11190 as NACK at time 895
Additional hops: 514
Adding flit 11195 as NACK at time 902
Additional hops: 522
Adding flit 11103 as NACK at time 902
Reenqueueing errored packet 11190 at time 904
Additional hops: 528
Adding flit 11250 as NACK at time 906
Additional hops: 550
Adding flit 10362 as NACK at time 907
Reenqueueing errored packet 10910 at time 912
Reenqueueing errored packet 11195 at time 915
Reenqueueing errored packet 11250 at time 919
Reenqueueing errored packet 11103 at time 919
Additional hops: 555
Adding flit 11580 as NACK at time 928
Additional hops: 559
Adding flit 11629 as NACK at time 929
Reenqueueing errored packet 11629 at time 938
Reenqueueing errored packet 11580 at time 939
Additional hops: 565
Adding flit 11802 as NACK at time 948
Additional hops: 571
Adding flit 11794 as NACK at time 948
Reenqueueing errored packet 10362 at time 952
Additional hops: 576
Adding flit 11915 as NACK at time 954
Additional hops: 582
Adding flit 11876 as NACK at time 954
Reenqueueing errored packet 11794 at time 961
Reenqueueing errored packet 11802 at time 961
Additional hops: 586
Adding flit 12045 as NACK at time 963
Reenqueueing errored packet 11915 at time 965
Additional hops: 596
Adding flit 11856 as NACK at time 965
Reenqueueing errored packet 11876 at time 967
Reenqueueing errored packet 12045 at time 972
Additional hops: 608
Adding flit 11794 as NACK at time 981
Reenqueueing errored packet 11856 at time 986
Additional hops: 617
Adding flit 12147 as NACK at time 986
Reenqueueing errored packet 12147 at time 1005
Reenqueueing errored packet 11794 at time 1006
Additional hops: 623
Adding flit 12525 as NACK at time 1006
Additional hops: 630
Adding flit 12523 as NACK at time 1009
Reenqueueing errored packet 12525 at time 1019
Reenqueueing errored packet 12523 at time 1024
Additional hops: 639
Adding flit 12691 as NACK at time 1028
Additional hops: 644
Adding flit 12998 as NACK at time 1040
Additional hops: 656
Adding flit 12734 as NACK at time 1041
Reenqueueing errored packet 12691 at time 1047
Reenqueueing errored packet 12998 at time 1051
Additional hops: 667
Adding flit 13066 as NACK at time 1065
Reenqueueing errored packet 12734 at time 1066
Additional hops: 671
Adding flit 13537 as NACK at time 1080
Reenqueueing errored packet 13066 at time 1088
Reenqueueing errored packet 13537 at time 1089
Additional hops: 675
Adding flit 13636 as NACK at time 1089
Additional hops: 684
Adding flit 13452 as NACK at time 1090
Additional hops: 692
Adding flit 13571 as NACK at time 1095
Reenqueueing errored packet 13636 at time 1098
Additional hops: 696
Adding flit 13839 as NACK at time 1102
Additional hops: 702
Adding flit 13757 as NACK at time 1105
Additional hops: 712
Adding flit 13651 as NACK at time 1107
Reenqueueing errored packet 13452 at time 1109
Additional hops: 721
Adding flit 13708 as NACK at time 1109
Additional hops: 732
Adding flit 13617 as NACK at time 1110
Reenqueueing errored packet 13839 at time 1111
Reenqueueing errored packet 13571 at time 1112
Reenqueueing errored packet 13757 at time 1118
Additional hops: 737
Adding flit 14075 as NACK at time 1124
Reenqueueing errored packet 13708 at time 1128
Reenqueueing errored packet 13651 at time 1128
Reenqueueing errored packet 13617 at time 1133
Reenqueueing errored packet 14075 at time 1135
Additional hops: 745
Adding flit 14229 as NACK at time 1145
Reenqueueing errored packet 14229 at time 1162
Additional hops: 749
Adding flit 15187 as NACK at time 1205
Reenqueueing errored packet 15187 at time 1214
Additional hops: 759
Adding flit 15118 as NACK at time 1217
Additional hops: 768
Adding flit 15222 as NACK at time 1224
Reenqueueing errored packet 15118 at time 1238
Reenqueueing errored packet 15222 at time 1243
Additional hops: 777
Adding flit 15463 as NACK at time 1244
Additional hops: 786
Adding flit 15663 as NACK at time 1260
Reenqueueing errored packet 15463 at time 1263
Additional hops: 794
Adding flit 15799 as NACK at time 1270
Additional hops: 804
Adding flit 15804 as NACK at time 1276
Reenqueueing errored packet 15663 at time 1279
Additional hops: 810
Adding flit 16070 as NACK at time 1286
Reenqueueing errored packet 15799 at time 1287
Reenqueueing errored packet 15804 at time 1297
Additional hops: 816
Adding flit 16248 as NACK at time 1298
Reenqueueing errored packet 16070 at time 1299
Reenqueueing errored packet 16248 at time 1311
Additional hops: 828
Adding flit 16184 as NACK at time 1312
Additional hops: 837
Adding flit 16477 as NACK at time 1326
Reenqueueing errored packet 16184 at time 1337
Additional hops: 846
Adding flit 16678 as NACK at time 1340
Reenqueueing errored packet 16477 at time 1345
Additional hops: 851
Adding flit 16902 as NACK at time 1348
Reenqueueing errored packet 16902 at time 1359
Reenqueueing errored packet 16678 at time 1359
Additional hops: 857
Adding flit 17306 as NACK at time 1380
Additional hops: 863
Adding flit 17465 as NACK at time 1392
Reenqueueing errored packet 17306 at time 1393
Additional hops: 869
Adding flit 17487 as NACK at time 1393
Reenqueueing errored packet 17465 at time 1405
Reenqueueing errored packet 17487 at time 1406
Additional hops: 874
Adding flit 17740 as NACK at time 1410
Reenqueueing errored packet 17740 at time 1421
Additional hops: 879
Adding flit 17868 as NACK at time 1421
Additional hops: 888
Adding flit 17790 as NACK at time 1426
Reenqueueing errored packet 17868 at time 1432
Reenqueueing errored packet 17790 at time 1445
Additional hops: 899
Adding flit 18125 as NACK at time 1459
Reenqueueing errored packet 18125 at time 1482
Additional hops: 910
Adding flit 18441 as NACK at time 1483
Reenqueueing errored packet 18441 at time 1506
Additional hops: 917
Adding flit 18946 as NACK at time 1509
Additional hops: 926
Adding flit 18956 as NACK at time 1515
Reenqueueing errored packet 18946 at time 1524
Reenqueueing errored packet 18956 at time 1534
Additional hops: 932
Adding flit 19568 as NACK at time 1554
Additional hops: 940
Adding flit 19559 as NACK at time 1559
Additional hops: 949
Adding flit 19613 as NACK at time 1564
Additional hops: 957
Adding flit 19614 as NACK at time 1564
Additional hops: 961
Adding flit 19797 as NACK at time 1566
Reenqueueing errored packet 19568 at time 1567
Additional hops: 965
Adding flit 19824 as NACK at time 1568
Additional hops: 973
Adding flit 19748 as NACK at time 1574
Reenqueueing errored packet 19797 at time 1575
Reenqueueing errored packet 19559 at time 1576
Reenqueueing errored packet 19824 at time 1577
Reenqueueing errored packet 19614 at time 1581
Reenqueueing errored packet 19613 at time 1583
Reenqueueing errored packet 19748 at time 1591
Additional hops: 978
Adding flit 20062 as NACK at time 1591
Additional hops: 990
Adding flit 19821 as NACK at time 1592
Reenqueueing errored packet 20062 at time 1602
Additional hops: 993
Adding flit 20334 as NACK at time 1606
Additional hops: 1001
Adding flit 20175 as NACK at time 1609
Reenqueueing errored packet 20334 at time 1613
Reenqueueing errored packet 19821 at time 1617
Reenqueueing errored packet 20175 at time 1626
Additional hops: 1006
Adding flit 20881 as NACK at time 1658
Reenqueueing errored packet 20881 at time 1669
Additional hops: 1016
Adding flit 20848 as NACK at time 1671
Additional hops: 1022
Adding flit 21089 as NACK at time 1676
Additional hops: 1027
Adding flit 21240 as NACK at time 1685
Reenqueueing errored packet 21089 at time 1689
Reenqueueing errored packet 20848 at time 1692
Reenqueueing errored packet 21240 at time 1696
Additional hops: 1035
Adding flit 21447 as NACK at time 1711
Additional hops: 1041
Adding flit 21664 as NACK at time 1723
Additional hops: 1048
Adding flit 21636 as NACK at time 1724
Reenqueueing errored packet 21447 at time 1728
Additional hops: 1054
Adding flit 21791 as NACK at time 1733
Additional hops: 1057
Adding flit 21914 as NACK at time 1734
Reenqueueing errored packet 21664 at time 1736
Reenqueueing errored packet 21636 at time 1739
Reenqueueing errored packet 21914 at time 1741
Reenqueueing errored packet 21791 at time 1746
Additional hops: 1064
Adding flit 21915 as NACK at time 1747
Additional hops: 1068
Adding flit 22042 as NACK at time 1747
Reenqueueing errored packet 22042 at time 1756
Additional hops: 1074
Adding flit 22105 as NACK at time 1761
Reenqueueing errored packet 21915 at time 1762
Additional hops: 1083
Adding flit 22065 as NACK at time 1765
Reenqueueing errored packet 22105 at time 1774
Additional hops: 1088
Adding flit 22375 as NACK at time 1777
Reenqueueing errored packet 22065 at time 1784
Reenqueueing errored packet 22375 at time 1788
Additional hops: 1094
Adding flit 22761 as NACK at time 1812
Reenqueueing errored packet 22761 at time 1825
Additional hops: 1098
Adding flit 23139 as NACK at time 1839
Reenqueueing errored packet 23139 at time 1848
Additional hops: 1108
Adding flit 23224 as NACK at time 1863
Additional hops: 1118
Adding flit 23361 as NACK at time 1872
Additional hops: 1129
Adding flit 23318 as NACK at time 1872
Additional hops: 1137
Adding flit 23482 as NACK at time 1876
Additional hops: 1145
Adding flit 23530 as NACK at time 1880
Reenqueueing errored packet 23224 at time 1884
Additional hops: 1153
Adding flit 23617 as NACK at time 1886
Reenqueueing errored packet 23482 at time 1893
Reenqueueing errored packet 23361 at time 1893
Reenqueueing errored packet 23318 at time 1895
Reenqueueing errored packet 23530 at time 1897
Additional hops: 1159
Adding flit 23871 as NACK at time 1900
Reenqueueing errored packet 23617 at time 1903
Reenqueueing errored packet 23871 at time 1913
Additional hops: 1165
Adding flit 24208 as NACK at time 1927
Additional hops: 1180
Adding flit 23957 as NACK at time 1933
Reenqueueing errored packet 24208 at time 1940
Additional hops: 1183
Adding flit 24664 as NACK at time 1953
Additional hops: 1193
Adding flit 24413 as NACK at time 1955
Reenqueueing errored packet 24664 at time 1960
Reenqueueing errored packet 23957 at time 1964
Reenqueueing errored packet 24413 at time 1976
Additional hops: 1198
Adding flit 25058 as NACK at time 1988
Reenqueueing errored packet 25058 at time 1999
Additional hops: 1208
Adding flit 25438 as NACK at time 2032
Reenqueueing errored packet 25438 at time 2053
Additional hops: 1214
Adding flit 25949 as NACK at time 2061
Additional hops: 1220
Adding flit 25963 as NACK at time 2061
Additional hops: 1227
Adding flit 25968 as NACK at time 2066
Reenqueueing errored packet 25963 at time 2074
Reenqueueing errored packet 25949 at time 2074
Additional hops: 1236
Adding flit 26016 as NACK at time 2074
Additional hops: 1243
Adding flit 26136 as NACK at time 2077
Reenqueueing errored packet 25968 at time 2081
Additional hops: 1247
Adding flit 26380 as NACK at time 2087
Reenqueueing errored packet 26136 at time 2092
Reenqueueing errored packet 26016 at time 2093
Reenqueueing errored packet 26380 at time 2096
Additional hops: 1255
Adding flit 26341 as NACK at time 2096
Reenqueueing errored packet 26341 at time 2113
Additional hops: 1262
Adding flit 26858 as NACK at time 2135
Reenqueueing errored packet 26858 at time 2150
Additional hops: 1272
Adding flit 27182 as NACK at time 2168
Reenqueueing errored packet 27182 at time 2189
Additional hops: 1276
Adding flit 27734 as NACK at time 2191
Reenqueueing errored packet 27734 at time 2200
Additional hops: 1287
Adding flit 27660 as NACK at time 2207
Additional hops: 1292
Adding flit 28162 as NACK at time 2227
Reenqueueing errored packet 27660 at time 2230
Reenqueueing errored packet 28162 at time 2238
Additional hops: 1304
Adding flit 28224 as NACK at time 2255
Additional hops: 1312
Adding flit 28507 as NACK at time 2264
Reenqueueing errored packet 28224 at time 2280
Reenqueueing errored packet 28507 at time 2281
Additional hops: 1317
Adding flit 28983 as NACK at time 2292
Additional hops: 1323
Adding flit 28989 as NACK at time 2295
Additional hops: 1329
Adding flit 29012 as NACK at time 2296
Additional hops: 1332
Adding flit 29192 as NACK at time 2302
Reenqueueing errored packet 28983 at time 2303
Reenqueueing errored packet 28989 at time 2308
Reenqueueing errored packet 29192 at time 2309
Reenqueueing errored packet 29012 at time 2309
Additional hops: 1339
Adding flit 29253 as NACK at time 2319
Additional hops: 1348
Adding flit 29256 as NACK at time 2325
Additional hops: 1354
Adding flit 29418 as NACK at time 2329
Reenqueueing errored packet 29253 at time 2334
Additional hops: 1365
Adding flit 29270 as NACK at time 2334
Reenqueueing errored packet 29418 at time 2342
Reenqueueing errored packet 29256 at time 2344
Additional hops: 1367
Adding flit 29818 as NACK at time 2351
Additional hops: 1375
Adding flit 29638 as NACK at time 2355
Reenqueueing errored packet 29818 at time 2356
Reenqueueing errored packet 29270 at time 2357
Additional hops: 1381
Adding flit 29753 as NACK at time 2358
Additional hops: 1389
Adding flit 29684 as NACK at time 2359
Additional hops: 1399
Adding flit 29655 as NACK at time 2361
Additional hops: 1405
Adding flit 29879 as NACK at time 2368
Reenqueueing errored packet 29753 at time 2371
Reenqueueing errored packet 29638 at time 2372
Additional hops: 1411
Adding flit 29987 as NACK at time 2374
Reenqueueing errored packet 29684 at time 2376
Reenqueueing errored packet 29879 at time 2381
Reenqueueing errored packet 29655 at time 2382
Reenqueueing errored packet 29987 at time 2387
Additional hops: 1419
Adding flit 30082 as NACK at time 2389
Additional hops: 1432
Adding flit 29961 as NACK at time 2396
Reenqueueing errored packet 30082 at time 2406
Additional hops: 1437
Adding flit 30377 as NACK at time 2406
Reenqueueing errored packet 30377 at time 2417
Reenqueueing errored packet 29961 at time 2423
Additional hops: 1447
Adding flit 30522 as NACK at time 2432
Additional hops: 1457
Adding flit 30676 as NACK at time 2445
Reenqueueing errored packet 30522 at time 2453
Reenqueueing errored packet 30676 at time 2466
Additional hops: 1465
Adding flit 31029 as NACK at time 2466
Additional hops: 1475
Adding flit 30964 as NACK at time 2467
Reenqueueing errored packet 31029 at time 2483
Additional hops: 1484
Adding flit 31225 as NACK at time 2485
Reenqueueing errored packet 30964 at time 2488
Additional hops: 1494
Adding flit 31348 as NACK at time 2499
Additional hops: 1500
Adding flit 31504 as NACK at time 2500
Reenqueueing errored packet 31225 at time 2504
Additional hops: 1508
Adding flit 31562 as NACK at time 2508
Reenqueueing errored packet 31504 at time 2513
Additional hops: 1513
Adding flit 31843 as NACK at time 2518
Reenqueueing errored packet 31348 at time 2520
Additional hops: 1518
Adding flit 31859 as NACK at time 2520
Additional hops: 1528
Adding flit 31611 as NACK at time 2521
Additional hops: 1532
Adding flit 31941 as NACK at time 2523
Reenqueueing errored packet 31562 at time 2525
Reenqueueing errored packet 31843 at time 2529
Reenqueueing errored packet 31859 at time 2531
Reenqueueing errored packet 31941 at time 2532
Additional hops: 1538
Adding flit 32053 as NACK at time 2539
Reenqueueing errored packet 31611 at time 2542
Additional hops: 1549
Adding flit 31995 as NACK at time 2551
Reenqueueing errored packet 32053 at time 2552
Additional hops: 1557
Adding flit 32227 as NACK at time 2558
Additional hops: 1565
Adding flit 32238 as NACK at time 2559
Additional hops: 1577
Adding flit 32116 as NACK at time 2561
Additional hops: 1587
Adding flit 32210 as NACK at time 2563
Reenqueueing errored packet 31995 at time 2574
Reenqueueing errored packet 32227 at time 2575
Reenqueueing errored packet 32238 at time 2576
Additional hops: 1591
Adding flit 32668 as NACK at time 2578
Additional hops: 1595
Adding flit 32719 as NACK at time 2581
Reenqueueing errored packet 32210 at time 2584
Reenqueueing errored packet 32116 at time 2586
Reenqueueing errored packet 32668 at time 2587
Reenqueueing errored packet 32719 at time 2590
Additional hops: 1602
Adding flit 32790 as NACK at time 2598
Reenqueueing errored packet 32790 at time 2613
Additional hops: 1611
Adding flit 32988 as NACK at time 2619
Additional hops: 1621
Adding flit 33137 as NACK at time 2636
Reenqueueing errored packet 32988 at time 2638
Additional hops: 1628
Adding flit 33481 as NACK at time 2654
Additional hops: 1634
Adding flit 33563 as NACK at time 2656
Reenqueueing errored packet 33137 at time 2657
Additional hops: 1640
Adding flit 33586 as NACK at time 2657
Reenqueueing errored packet 33563 at time 2669
Reenqueueing errored packet 33481 at time 2669
Reenqueueing errored packet 33586 at time 2670
Additional hops: 1643
Adding flit 33862 as NACK at time 2672
Reenqueueing errored packet 33862 at time 2679
Additional hops: 1648
Adding flit 34022 as NACK at time 2693
Additional hops: 1652
Adding flit 34102 as NACK at time 2696
Reenqueueing errored packet 34022 at time 2704
Reenqueueing errored packet 34102 at time 2705
Additional hops: 1658
Adding flit 34151 as NACK at time 2705
Reenqueueing errored packet 34151 at time 2718
Additional hops: 1666
Adding flit 34388 as NACK at time 2730
Additional hops: 1670
Adding flit 34701 as NACK at time 2743
Additional hops: 1681
Adding flit 34441 as NACK at time 2745
Reenqueueing errored packet 34388 at time 2747
Reenqueueing errored packet 34701 at time 2752
Additional hops: 1689
Adding flit 34789 as NACK at time 2764
Additional hops: 1694
Adding flit 34914 as NACK at time 2765
Reenqueueing errored packet 34441 at time 2768
Additional hops: 1699
Adding flit 35012 as NACK at time 2773
Reenqueueing errored packet 34914 at time 2776
Reenqueueing errored packet 34789 at time 2781
Additional hops: 1708
Adding flit 34987 as NACK at time 2783
Reenqueueing errored packet 35012 at time 2784
Additional hops: 1721
Adding flit 34873 as NACK at time 2787
Additional hops: 1733
Adding flit 34925 as NACK at time 2788
Additional hops: 1737
Adding flit 35278 as NACK at time 2789
Additional hops: 1745
Adding flit 35219 as NACK at time 2796
Reenqueueing errored packet 35278 at time 2798
Additional hops: 1754
Adding flit 35222 as NACK at time 2800
Reenqueueing errored packet 34987 at time 2802
Additional hops: 1763
Adding flit 35285 as NACK at time 2806
Reenqueueing errored packet 35219 at time 2813
Reenqueueing errored packet 34925 at time 2813
Reenqueueing errored packet 34873 at time 2814
Reenqueueing errored packet 35222 at time 2819
Reenqueueing errored packet 35285 at time 2825
Additional hops: 1771
Adding flit 35696 as NACK at time 2834
Additional hops: 1778
Adding flit 35758 as NACK at time 2839
Additional hops: 1786
Adding flit 35815 as NACK at time 2842
Additional hops: 1797
Adding flit 35661 as NACK at time 2844
Reenqueueing errored packet 35696 at time 2851
Additional hops: 1809
Adding flit 35787 as NACK at time 2853
Reenqueueing errored packet 35758 at time 2854
Reenqueueing errored packet 35815 at time 2859
Reenqueueing errored packet 35661 at time 2867
Additional hops: 1815
Adding flit 36179 as NACK at time 2868
Additional hops: 1824
Adding flit 36102 as NACK at time 2870
Additional hops: 1832
Adding flit 36203 as NACK at time 2876
Reenqueueing errored packet 35787 at time 2878
Reenqueueing errored packet 36179 at time 2881
Additional hops: 1844
Adding flit 36123 as NACK at time 2882
Reenqueueing errored packet 36102 at time 2889
Reenqueueing errored packet 36203 at time 2893
Additional hops: 1852
Adding flit 36476 as NACK at time 2895
Additional hops: 1865
Adding flit 36283 as NACK at time 2897
Additional hops: 1868
Adding flit 36748 as NACK at time 2902
Reenqueueing errored packet 36123 at time 2907
Additional hops: 1874
Adding flit 36707 as NACK at time 2908
Reenqueueing errored packet 36748 at time 2909
Reenqueueing errored packet 36476 at time 2912
Reenqueueing errored packet 36707 at time 2921
Additional hops: 1877
Adding flit 37001 as NACK at time 2921
Reenqueueing errored packet 36283 at time 2924
Additional hops: 1882
Adding flit 36947 as NACK at time 2924
Reenqueueing errored packet 37001 at time 2928
Reenqueueing errored packet 36947 at time 2935
Additional hops: 1888
Adding flit 37096 as NACK at time 2938
Additional hops: 1891
Adding flit 37320 as NACK at time 2946
Reenqueueing errored packet 37096 at time 2951
Reenqueueing errored packet 37320 at time 2953
Additional hops: 1895
Adding flit 37376 as NACK at time 2954
Reenqueueing errored packet 37376 at time 2963
Additional hops: 1898
Adding flit 37554 as NACK at time 2965
Additional hops: 1910
Adding flit 37276 as NACK at time 2970
Reenqueueing errored packet 37554 at time 2972
Additional hops: 1917
Adding flit 37485 as NACK at time 2974
Reenqueueing errored packet 37485 at time 2989
Reenqueueing errored packet 37276 at time 2995
Additional hops: 1924
Adding flit 37865 as NACK at time 3004
Additional hops: 1930
Adding flit 37948 as NACK at time 3006
Reenqueueing errored packet 37948 at time 3019
Reenqueueing errored packet 37865 at time 3019
Additional hops: 1931
Adding flit 38305 as NACK at time 3019
Reenqueueing errored packet 38305 at time 3022
Additional hops: 1943
Adding flit 37926 as NACK at time 3025
Additional hops: 1953
Adding flit 38254 as NACK at time 3043
Additional hops: 1964
Adding flit 38199 as NACK at time 3045
Additional hops: 1969
Adding flit 38487 as NACK at time 3046
Additional hops: 1973
Adding flit 38545 as NACK at time 3047
Reenqueueing errored packet 37926 at time 3050
Additional hops: 1980
Adding flit 38471 as NACK at time 3053
Reenqueueing errored packet 38545 at time 3056
Reenqueueing errored packet 38487 at time 3057
Additional hops: 1988
Adding flit 38598 as NACK at time 3063
Reenqueueing errored packet 38254 at time 3064
Reenqueueing errored packet 38471 at time 3068
Reenqueueing errored packet 38199 at time 3068
Reenqueueing errored packet 38598 at time 3080
Additional hops: 1994
Adding flit 38865 as NACK at time 3081
Reenqueueing errored packet 38865 at time 3094
Additional hops: 1996
Adding flit 39343 as NACK at time 3104
Additional hops: 2001
Adding flit 39237 as NACK at time 3105
Reenqueueing errored packet 39343 at time 3109
Additional hops: 2007
Adding flit 39249 as NACK at time 3109
Reenqueueing errored packet 39237 at time 3116
Additional hops: 2015
Adding flit 39265 as NACK at time 3116
Reenqueueing errored packet 39249 at time 3122
Reenqueueing errored packet 39265 at time 3133
Additional hops: 2025
Adding flit 39625 as NACK at time 3152
Additional hops: 2036
Adding flit 39725 as NACK at time 3159
Additional hops: 2044
Adding flit 39845 as NACK at time 3160
Reenqueueing errored packet 39625 at time 3173
Reenqueueing errored packet 39845 at time 3177
Additional hops: 2052
Adding flit 40082 as NACK at time 3179
Reenqueueing errored packet 39725 at time 3182
Additional hops: 2060
Adding flit 40132 as NACK at time 3187
Additional hops: 2062
Adding flit 40416 as NACK at time 3189
Reenqueueing errored packet 40416 at time 3194
Reenqueueing errored packet 40082 at time 3196
Reenqueueing errored packet 40132 at time 3204
Additional hops: 2067
Adding flit 40689 as NACK at time 3219
Additional hops: 2080
Adding flit 40425 as NACK at time 3223
Additional hops: 2083
Adding flit 40847 as NACK at time 3227
Reenqueueing errored packet 40689 at time 3230
Reenqueueing errored packet 40847 at time 3234
Additional hops: 2091
Adding flit 40823 as NACK at time 3242
Additional hops: 2100
Adding flit 40803 as NACK at time 3243
Additional hops: 2111
Adding flit 40785 as NACK at time 3245
Reenqueueing errored packet 40425 at time 3250
Additional hops: 2120
Adding flit 40998 as NACK at time 3257
Reenqueueing errored packet 40823 at time 3259
Reenqueueing errored packet 40803 at time 3262
Additional hops: 2129
Adding flit 41086 as NACK at time 3264
Additional hops: 2136
Adding flit 41229 as NACK at time 3267
Reenqueueing errored packet 40785 at time 3268
Reenqueueing errored packet 40998 at time 3276
Reenqueueing errored packet 41229 at time 3282
Reenqueueing errored packet 41086 at time 3283
Additional hops: 2143
Adding flit 41446 as NACK at time 3286
Additional hops: 2154
Adding flit 41457 as NACK at time 3297
Reenqueueing errored packet 41446 at time 3301
Reenqueueing errored packet 41457 at time 3320
Additional hops: 2161
Adding flit 41943 as NACK at time 3325
Additional hops: 2170
Adding flit 42038 as NACK at time 3337
Additional hops: 2178
Adding flit 42059 as NACK at time 3338
Reenqueueing errored packet 41943 at time 3340
Additional hops: 2188
Adding flit 42172 as NACK at time 3351
Additional hops: 2200
Adding flit 42120 as NACK at time 3353
Reenqueueing errored packet 42059 at time 3355
Reenqueueing errored packet 42038 at time 3356
Reenqueueing errored packet 42172 at time 3372
Additional hops: 2208
Adding flit 42512 as NACK at time 3373
Reenqueueing errored packet 42120 at time 3378
Reenqueueing errored packet 42512 at time 3390
Additional hops: 2214
Adding flit 42921 as NACK at time 3398
Additional hops: 2220
Adding flit 43062 as NACK at time 3408
Reenqueueing errored packet 42921 at time 3411
Additional hops: 2226
Adding flit 43130 as NACK at time 3414
Reenqueueing errored packet 43062 at time 3421
Additional hops: 2237
Adding flit 43053 as NACK at time 3423
Reenqueueing errored packet 43130 at time 3427
Additional hops: 2251
Adding flit 43020 as NACK at time 3429
Additional hops: 2262
Adding flit 43264 as NACK at time 3439
Additional hops: 2265
Adding flit 43624 as NACK at time 3443
Additional hops: 2271
Adding flit 43502 as NACK at time 3444
Reenqueueing errored packet 43053 at time 3446
Reenqueueing errored packet 43624 at time 3450
Additional hops: 2281
Adding flit 43475 as NACK at time 3453
Reenqueueing errored packet 43502 at time 3457
Reenqueueing errored packet 43020 at time 3458
Reenqueueing errored packet 43264 at time 3462
Additional hops: 2287
Adding flit 43764 as NACK at time 3463
Additional hops: 2292
Adding flit 43876 as NACK at time 3469
Reenqueueing errored packet 43475 at time 3474
Reenqueueing errored packet 43764 at time 3476
Reenqueueing errored packet 43876 at time 3480
Additional hops: 2302
Adding flit 44746 as NACK at time 3550
Additional hops: 2309
Adding flit 45038 as NACK at time 3565
Reenqueueing errored packet 44746 at time 3571
Reenqueueing errored packet 45038 at time 3580
Additional hops: 2319
Adding flit 45188 as NACK at time 3585
Reenqueueing errored packet 45188 at time 3606
Additional hops: 2323
Adding flit 45733 as NACK at time 3607
Additional hops: 2327
Adding flit 45779 as NACK at time 3611
Additional hops: 2337
Adding flit 45564 as NACK at time 3613
Reenqueueing errored packet 45733 at time 3616
Additional hops: 2344
Adding flit 45750 as NACK at time 3618
Reenqueueing errored packet 45779 at time 3620
Reenqueueing errored packet 45750 at time 3633
Reenqueueing errored packet 45564 at time 3634
Additional hops: 2350
Adding flit 46158 as NACK at time 3645
Additional hops: 2355
Adding flit 46204 as NACK at time 3645
Additional hops: 2359
Adding flit 46280 as NACK at time 3647
Reenqueueing errored packet 46280 at time 3656
Reenqueueing errored packet 46204 at time 3656
Reenqueueing errored packet 46158 at time 3658
Additional hops: 2367
Adding flit 46334 as NACK at time 3666
Reenqueueing errored packet 46334 at time 3683
Additional hops: 2372
Adding flit 46859 as NACK at time 3699
Additional hops: 2379
Adding flit 46893 as NACK at time 3708
Reenqueueing errored packet 46859 at time 3710
Additional hops: 2387
Adding flit 46892 as NACK at time 3710
Reenqueueing errored packet 46893 at time 3723
Reenqueueing errored packet 46892 at time 3727
Additional hops: 2391
Adding flit 47326 as NACK at time 3731
Additional hops: 2395
Adding flit 47336 as NACK at time 3732
Additional hops: 2400
Adding flit 47316 as NACK at time 3735
Reenqueueing errored packet 47326 at time 3740
Reenqueueing errored packet 47336 at time 3741
Reenqueueing errored packet 47316 at time 3746
Additional hops: 2405
Adding flit 47564 as NACK at time 3753
Reenqueueing errored packet 47564 at time 3764
Additional hops: 2414
Adding flit 47897 as NACK at time 3790
Additional hops: 2417
Adding flit 48267 as NACK at time 3799
Reenqueueing errored packet 48267 at time 3806
Reenqueueing errored packet 47897 at time 3809
Additional hops: 2424
Adding flit 48278 as NACK at time 3813
Reenqueueing errored packet 48278 at time 3828
Additional hops: 2428
Adding flit 48586 as NACK at time 3829
Reenqueueing errored packet 48586 at time 3838
Additional hops: 2438
Adding flit 48443 as NACK at time 3839
Reenqueueing errored packet 48443 at time 3860
Additional hops: 2444
Adding flit 49040 as NACK at time 3872
Additional hops: 2447
Adding flit 49254 as NACK at time 3880
Reenqueueing errored packet 49040 at time 3885
Reenqueueing errored packet 49254 at time 3887
Additional hops: 2456
Adding flit 49191 as NACK at time 3893
Additional hops: 2464
Adding flit 49403 as NACK at time 3908
Reenqueueing errored packet 49191 at time 3912
Additional hops: 2470
Adding flit 49604 as NACK at time 3915
Additional hops: 2477
Adding flit 49559 as NACK at time 3915
Additional hops: 2484
Adding flit 49681 as NACK at time 3924
Reenqueueing errored packet 49403 at time 3925
Additional hops: 2495
Adding flit 49514 as NACK at time 3925
Additional hops: 2500
Adding flit 49796 as NACK at time 3927
Reenqueueing errored packet 49604 at time 3928
Reenqueueing errored packet 49559 at time 3930
Reenqueueing errored packet 49796 at time 3938
Reenqueueing errored packet 49681 at time 3939
Additional hops: 2506
Adding flit 49962 as NACK at time 3944
Reenqueueing errored packet 49514 at time 3948
Additional hops: 2512
Adding flit 50069 as NACK at time 3951
Additional hops: 2522
Adding flit 49939 as NACK at time 3954
Reenqueueing errored packet 49962 at time 3957
Reenqueueing errored packet 50069 at time 3964
Reenqueueing errored packet 49939 at time 3975
Additional hops: 2531
Adding flit 50308 as NACK at time 3981
Additional hops: 2535
Adding flit 50670 as NACK at time 3993
Reenqueueing errored packet 50308 at time 4000
Reenqueueing errored packet 50670 at time 4002
Additional hops: 2540
Adding flit 50894 as NACK at time 4011
Additional hops: 2549
Adding flit 50768 as NACK at time 4015
Additional hops: 2553
Adding flit 50999 as NACK at time 4018
Reenqueueing errored packet 50894 at time 4022
Additional hops: 2556
Adding flit 51170 as NACK at time 4026
Reenqueueing errored packet 50999 at time 4027
Reenqueueing errored packet 51170 at time 4033
Reenqueueing errored packet 50768 at time 4034
Additional hops: 2566
Adding flit 50968 as NACK at time 4034
Additional hops: 2573
Adding flit 51153 as NACK at time 4035
Additional hops: 2577
Adding flit 51350 as NACK at time 4041
Additional hops: 2583
Adding flit 51360 as NACK at time 4048
Reenqueueing errored packet 51350 at time 4050
Reenqueueing errored packet 51153 at time 4050
Additional hops: 2592
Adding flit 51286 as NACK at time 4052
Reenqueueing errored packet 50968 at time 4055
Additional hops: 2598
Adding flit 51457 as NACK at time 4059
Reenqueueing errored packet 51360 at time 4061
Additional hops: 2603
Adding flit 51560 as NACK at time 4061
Reenqueueing errored packet 51286 at time 4071
Reenqueueing errored packet 51560 at time 4072
Reenqueueing errored packet 51457 at time 4072
Additional hops: 2606
Adding flit 51967 as NACK at time 4085
Additional hops: 2615
Adding flit 51751 as NACK at time 4086
Additional hops: 2635
Adding flit 50968 as NACK at time 4091
Reenqueueing errored packet 51967 at time 4092
Reenqueueing errored packet 51751 at time 4105
Reenqueueing errored packet 50968 at time 4132
Additional hops: 2639
Adding flit 52619 as NACK at time 4139
Reenqueueing errored packet 52619 at time 4148
Additional hops: 2647
Adding flit 52642 as NACK at time 4159
Additional hops: 2654
Adding flit 52750 as NACK at time 4160
Additional hops: 2657
Adding flit 53023 as NACK at time 4170
Reenqueueing errored packet 52750 at time 4175
Reenqueueing errored packet 52642 at time 4176
Reenqueueing errored packet 53023 at time 4177
Additional hops: 2663
Adding flit 53159 as NACK at time 4188
Additional hops: 2667
Adding flit 53303 as NACK at time 4192
Additional hops: 2678
Adding flit 53118 as NACK at time 4200
Reenqueueing errored packet 53303 at time 4201
Reenqueueing errored packet 53159 at time 4201
Additional hops: 2687
Adding flit 53446 as NACK at time 4217
Additional hops: 2692
Adding flit 53640 as NACK at time 4220
Reenqueueing errored packet 53118 at time 4223
Reenqueueing errored packet 53640 at time 4231
Reenqueueing errored packet 53446 at time 4236
Additional hops: 2703
Adding flit 53830 as NACK at time 4255
Additional hops: 2710
Adding flit 54224 as NACK at time 4272
Additional hops: 2718
Adding flit 54241 as NACK at time 4276
Reenqueueing errored packet 53830 at time 4278
Additional hops: 2728
Adding flit 54207 as NACK at time 4280
Reenqueueing errored packet 54224 at time 4287
Reenqueueing errored packet 54241 at time 4293
Additional hops: 2734
Adding flit 54573 as NACK at time 4297
Reenqueueing errored packet 54207 at time 4301
Additional hops: 2739
Adding flit 54704 as NACK at time 4304
Reenqueueing errored packet 54573 at time 4310
Additional hops: 2744
Adding flit 54813 as NACK at time 4314
Reenqueueing errored packet 54704 at time 4315
Reenqueueing errored packet 54813 at time 4325
Additional hops: 2753
Adding flit 54912 as NACK at time 4336
Additional hops: 2763
Adding flit 55073 as NACK at time 4350
Additional hops: 2768
Adding flit 55334 as NACK at time 4353
Reenqueueing errored packet 54912 at time 4355
Additional hops: 2782
Adding flit 55010 as NACK at time 4355
Additional hops: 2787
Adding flit 55359 as NACK at time 4357
Reenqueueing errored packet 55334 at time 4364
Reenqueueing errored packet 55359 at time 4368
Reenqueueing errored packet 55073 at time 4371
Reenqueueing errored packet 55010 at time 4384
Additional hops: 2795
Adding flit 55621 as NACK at time 4385
Reenqueueing errored packet 55621 at time 4402
Additional hops: 2801
Adding flit 55964 as NACK at time 4404
Additional hops: 2810
Adding flit 55882 as NACK at time 4409
Additional hops: 2820
Adding flit 55919 as NACK at time 4414
Additional hops: 2830
Adding flit 55881 as NACK at time 4414
Reenqueueing errored packet 55964 at time 4417
Additional hops: 2839
Adding flit 56069 as NACK at time 4421
Reenqueueing errored packet 55882 at time 4428
Additional hops: 2845
Adding flit 56259 as NACK at time 4429
Additional hops: 2859
Adding flit 55971 as NACK at time 4429
Reenqueueing errored packet 55881 at time 4435
Reenqueueing errored packet 55919 at time 4435
Additional hops: 2862
Adding flit 56487 as NACK at time 4438
Reenqueueing errored packet 56069 at time 4440
Reenqueueing errored packet 56259 at time 4442
Reenqueueing errored packet 56487 at time 4445
Reenqueueing errored packet 55971 at time 4458
Additional hops: 2867
Adding flit 56676 as NACK at time 4461
Reenqueueing errored packet 56676 at time 4472
Additional hops: 2872
Adding flit 56929 as NACK at time 4482
Reenqueueing errored packet 56929 at time 4493
Additional hops: 2879
Adding flit 56974 as NACK at time 4494
Reenqueueing errored packet 56974 at time 4509
Additional hops: 2891
Adding flit 57079 as NACK at time 4519
Additional hops: 2900
Adding flit 57255 as NACK at time 4523
Additional hops: 2910
Adding flit 57376 as NACK at time 4536
Reenqueueing errored packet 57255 at time 4542
Reenqueueing errored packet 57079 at time 4544
Additional hops: 2917
Adding flit 57610 as NACK at time 4546
Reenqueueing errored packet 57376 at time 4557
Reenqueueing errored packet 57610 at time 4561
Additional hops: 2924
Adding flit 57783 as NACK at time 4562
Additional hops: 2932
Adding flit 57870 as NACK at time 4570
Reenqueueing errored packet 57783 at time 4577
Additional hops: 2940
Adding flit 57945 as NACK at time 4577
Additional hops: 2949
Adding flit 57999 as NACK at time 4582
Reenqueueing errored packet 57870 at time 4587
Additional hops: 2952
Adding flit 58293 as NACK at time 4589
Additional hops: 2959
Adding flit 58178 as NACK at time 4592
Reenqueueing errored packet 57945 at time 4594
Reenqueueing errored packet 58293 at time 4596
Reenqueueing errored packet 57999 at time 4601
Additional hops: 2963
Adding flit 58402 as NACK at time 4601
Additional hops: 2968
Adding flit 58387 as NACK at time 4603
Reenqueueing errored packet 58178 at time 4607
Reenqueueing errored packet 58402 at time 4610
Additional hops: 2975
Adding flit 58407 as NACK at time 4613
Reenqueueing errored packet 58387 at time 4614
Additional hops: 2976
Adding flit 58708 as NACK at time 4615
Reenqueueing errored packet 58708 at time 4618
Additional hops: 2980
Adding flit 58604 as NACK at time 4619
Reenqueueing errored packet 58604 at time 4628
Reenqueueing errored packet 58407 at time 4628
Additional hops: 2986
Adding flit 58679 as NACK at time 4628
Reenqueueing errored packet 58679 at time 4641
Additional hops: 2995
Adding flit 58723 as NACK at time 4641
Additional hops: 3003
Adding flit 58782 as NACK at time 4643
Additional hops: 3008
Adding flit 59011 as NACK at time 4650
Additional hops: 3014
Adding flit 59024 as NACK at time 4655
Additional hops: 3021
Adding flit 58988 as NACK at time 4658
Reenqueueing errored packet 58782 at time 4660
Reenqueueing errored packet 58723 at time 4660
Reenqueueing errored packet 59011 at time 4661
Additional hops: 3024
Adding flit 59260 as NACK at time 4663
Additional hops: 3030
Adding flit 59161 as NACK at time 4665
Additional hops: 3042
Adding flit 58959 as NACK at time 4666
Reenqueueing errored packet 59024 at time 4668
Reenqueueing errored packet 59260 at time 4670
Reenqueueing errored packet 58988 at time 4673
Additional hops: 3050
Adding flit 59204 as NACK at time 4674
Reenqueueing errored packet 59161 at time 4678
Additional hops: 3055
Adding flit 59445 as NACK at time 4683
Additional hops: 3057
Adding flit 59614 as NACK at time 4687
Reenqueueing errored packet 59204 at time 4691
Reenqueueing errored packet 58959 at time 4691
Reenqueueing errored packet 59614 at time 4692
Reenqueueing errored packet 59445 at time 4694
Additional hops: 3062
Adding flit 59744 as NACK at time 4707
Additional hops: 3068
Adding flit 59705 as NACK at time 4709
Additional hops: 3079
Adding flit 59651 as NACK at time 4717
Reenqueueing errored packet 59744 at time 4718
Additional hops: 3086
Adding flit 59818 as NACK at time 4719
Reenqueueing errored packet 59705 at time 4722
Additional hops: 3097
Adding flit 59759 as NACK at time 4728
Reenqueueing errored packet 59818 at time 4734
Additional hops: 3102
Adding flit 60130 as NACK at time 4738
Reenqueueing errored packet 59651 at time 4740
Additional hops: 3106
Adding flit 60204 as NACK at time 4740
Reenqueueing errored packet 60204 at time 4749
Reenqueueing errored packet 60130 at time 4749
Additional hops: 3112
Adding flit 60230 as NACK at time 4749
Reenqueueing errored packet 59759 at time 4751
Reenqueueing errored packet 60230 at time 4762
Additional hops: 3119
Adding flit 60371 as NACK at time 4764
Additional hops: 3127
Adding flit 60422 as NACK at time 4769
Additional hops: 3133
Adding flit 60590 as NACK at time 4776
Reenqueueing errored packet 60371 at time 4779
Reenqueueing errored packet 60422 at time 4786
Reenqueueing errored packet 60590 at time 4789
Additional hops: 3142
Adding flit 60904 as NACK at time 4811
Additional hops: 3145
Adding flit 61118 as NACK at time 4813
Reenqueueing errored packet 61118 at time 4820
Additional hops: 3151
Adding flit 61148 as NACK at time 4822
Additional hops: 3162
Adding flit 60950 as NACK at time 4822
Reenqueueing errored packet 60904 at time 4830
Additional hops: 3172
Adding flit 61097 as NACK at time 4830
Reenqueueing errored packet 61148 at time 4835
Reenqueueing errored packet 60950 at time 4845
Additional hops: 3180
Adding flit 61341 as NACK at time 4846
Additional hops: 3185
Adding flit 61506 as NACK at time 4848
Additional hops: 3193
Adding flit 61401 as NACK at time 4848
Reenqueueing errored packet 61097 at time 4851
Reenqueueing errored packet 61506 at time 4859
Reenqueueing errored packet 61341 at time 4863
Reenqueueing errored packet 61401 at time 4865
Additional hops: 3201
Adding flit 61870 as NACK at time 4885
Reenqueueing errored packet 61870 at time 4902
Additional hops: 3209
Adding flit 62474 as NACK at time 4930
Reenqueueing errored packet 62474 at time 4947
Additional hops: 3217
Adding flit 62729 as NACK at time 4953
Additional hops: 3222
Adding flit 62893 as NACK at time 4956
Additional hops: 3226
Adding flit 62997 as NACK at time 4961
Reenqueueing errored packet 62893 at time 4967
Reenqueueing errored packet 62997 at time 4970
Reenqueueing errored packet 62729 at time 4970
Additional hops: 3233
Adding flit 63133 as NACK at time 4984
Additional hops: 3240
Adding flit 63134 as NACK at time 4984
Additional hops: 3246
Adding flit 63341 as NACK at time 4998
Reenqueueing errored packet 63134 at time 4999
Reenqueueing errored packet 63133 at time 4999
Reenqueueing errored packet 63341 at time 5011
Additional hops: 3257
Adding flit 63310 as NACK at time 5013
Additional hops: 3262
Adding flit 63614 as NACK at time 5016
Additional hops: 3273
Adding flit 63362 as NACK at time 5018
Additional hops: 3277
Adding flit 63704 as NACK at time 5020
Additional hops: 3279
Adding flit 63860 as NACK at time 5026
Reenqueueing errored packet 63614 at time 5027
Additional hops: 3288
Adding flit 63597 as NACK at time 5028
Reenqueueing errored packet 63704 at time 5029
Reenqueueing errored packet 63860 at time 5031
Reenqueueing errored packet 63310 at time 5036
Additional hops: 3289
Adding flit 64056 as NACK at time 5039
Additional hops: 3299
Adding flit 63731 as NACK at time 5040
Reenqueueing errored packet 63362 at time 5041
Reenqueueing errored packet 64056 at time 5042
Reenqueueing errored packet 63597 at time 5047
Additional hops: 3304
Adding flit 64007 as NACK at time 5048
Additional hops: 3315
Adding flit 63862 as NACK at time 5053
Additional hops: 3319
Adding flit 64137 as NACK at time 5057
Reenqueueing errored packet 64007 at time 5059
Reenqueueing errored packet 63731 at time 5061
Reenqueueing errored packet 64137 at time 5066
Additional hops: 3328
Adding flit 64108 as NACK at time 5067
Additional hops: 3340
Adding flit 64025 as NACK at time 5070
Reenqueueing errored packet 63862 at time 5076
Additional hops: 3343
Adding flit 64502 as NACK at time 5079
Reenqueueing errored packet 64502 at time 5086
Reenqueueing errored packet 64108 at time 5086
Additional hops: 3351
Adding flit 64414 as NACK at time 5090
Additional hops: 3361
Adding flit 64383 as NACK at time 5092
Additional hops: 3371
Adding flit 64409 as NACK at time 5093
Additional hops: 3378
Adding flit 64532 as NACK at time 5094
Reenqueueing errored packet 64025 at time 5095
Additional hops: 3383
Adding flit 64646 as NACK at time 5097
Additional hops: 3394
Adding flit 64431 as NACK at time 5101
Reenqueueing errored packet 64414 at time 5107
Reenqueueing errored packet 64646 at time 5108
Reenqueueing errored packet 64532 at time 5109
Additional hops: 3398
Adding flit 64846 as NACK at time 5109
Additional hops: 3405
Adding flit 64752 as NACK at time 5112
Reenqueueing errored packet 64383 at time 5113
Reenqueueing errored packet 64409 at time 5114
Additional hops: 3411
Adding flit 64805 as NACK at time 5114
Reenqueueing errored packet 64846 at time 5118
Reenqueueing errored packet 64431 at time 5124
Reenqueueing errored packet 64805 at time 5127
Reenqueueing errored packet 64752 at time 5127
Additional hops: 3416
Adding flit 65088 as NACK at time 5131
Additional hops: 3421
Adding flit 65174 as NACK at time 5137
Reenqueueing errored packet 65088 at time 5142
Reenqueueing errored packet 65174 at time 5148
Additional hops: 3431
Adding flit 65354 as NACK at time 5168
Additional hops: 3434
Adding flit 65654 as NACK at time 5168
Reenqueueing errored packet 65654 at time 5175
Additional hops: 3443
Adding flit 65552 as NACK at time 5179
Additional hops: 3449
Adding flit 65785 as NACK at time 5188
Reenqueueing errored packet 65354 at time 5189
Reenqueueing errored packet 65552 at time 5198
Reenqueueing errored packet 65785 at time 5201
Additional hops: 3455
Adding flit 66505 as NACK at time 5244
Additional hops: 3461
Adding flit 66563 as NACK at time 5248
Additional hops: 3467
Adding flit 66568 as NACK at time 5249
Additional hops: 3475
Adding flit 66522 as NACK at time 5250
Reenqueueing errored packet 66505 at time 5257
Reenqueueing errored packet 66563 at time 5261
Reenqueueing errored packet 66568 at time 5262
Reenqueueing errored packet 66522 at time 5267
Additional hops: 3481
Adding flit 66890 as NACK at time 5270
Additional hops: 3488
Adding flit 66865 as NACK at time 5271
Additional hops: 3497
Adding flit 66854 as NACK at time 5279
Reenqueueing errored packet 66890 at time 5283
Reenqueueing errored packet 66865 at time 5286
Additional hops: 3506
Adding flit 67009 as NACK at time 5288
Reenqueueing errored packet 66854 at time 5298
Reenqueueing errored packet 67009 at time 5307
Additional hops: 3514
Adding flit 67430 as NACK at time 5315
Additional hops: 3523
Adding flit 67393 as NACK at time 5315
Additional hops: 3529
Adding flit 67534 as NACK at time 5317
Additional hops: 3533
Adding flit 67718 as NACK at time 5325
Additional hops: 3542
Adding flit 67549 as NACK at time 5329
Additional hops: 3549
Adding flit 67654 as NACK at time 5329
Reenqueueing errored packet 67534 at time 5330
Reenqueueing errored packet 67430 at time 5332
Additional hops: 3561
Adding flit 67494 as NACK at time 5332
Reenqueueing errored packet 67718 at time 5334
Reenqueueing errored packet 67393 at time 5334
Additional hops: 3570
Adding flit 67710 as NACK at time 5342
Reenqueueing errored packet 67654 at time 5344
Reenqueueing errored packet 67549 at time 5348
Additional hops: 3580
Adding flit 67806 as NACK at time 5352
Additional hops: 3589
Adding flit 67893 as NACK at time 5355
Reenqueueing errored packet 67494 at time 5357
Additional hops: 3592
Adding flit 68205 as NACK at time 5360
Reenqueueing errored packet 67710 at time 5361
Reenqueueing errored packet 68205 at time 5367
Additional hops: 3599
Adding flit 68124 as NACK at time 5369
Additional hops: 3609
Adding flit 68049 as NACK at time 5371
Reenqueueing errored packet 67806 at time 5373
Reenqueueing errored packet 67893 at time 5374
Reenqueueing errored packet 68124 at time 5384
Reenqueueing errored packet 68049 at time 5392
Additional hops: 3615
Adding flit 68876 as NACK at time 5423
Reenqueueing errored packet 68876 at time 5436
Additional hops: 3626
Adding flit 68814 as NACK at time 5436
Additional hops: 3635
Adding flit 68977 as NACK at time 5441
Additional hops: 3641
Adding flit 69377 as NACK at time 5458
Reenqueueing errored packet 68814 at time 5459
Reenqueueing errored packet 68977 at time 5460
Additional hops: 3652
Adding flit 69279 as NACK at time 5465
Reenqueueing errored packet 69377 at time 5471
Reenqueueing errored packet 69279 at time 5488
Additional hops: 3659
Adding flit 69781 as NACK at time 5494
Reenqueueing errored packet 69781 at time 5509
Additional hops: 3666
Adding flit 70069 as NACK at time 5515
Additional hops: 3674
Adding flit 70076 as NACK at time 5518
Additional hops: 3683
Adding flit 70023 as NACK at time 5519
Additional hops: 3692
Adding flit 70146 as NACK at time 5526
Additional hops: 3698
Adding flit 70242 as NACK at time 5526
Reenqueueing errored packet 70069 at time 5530
Additional hops: 3705
Adding flit 70234 as NACK at time 5531
Additional hops: 3713
Adding flit 70274 as NACK at time 5534
Reenqueueing errored packet 70076 at time 5535
Reenqueueing errored packet 70023 at time 5538
Reenqueueing errored packet 70242 at time 5539
Reenqueueing errored packet 70146 at time 5545
Reenqueueing errored packet 70234 at time 5546
Reenqueueing errored packet 70274 at time 5551
Additional hops: 3721
Adding flit 70486 as NACK at time 5551
Reenqueueing errored packet 70486 at time 5568
Additional hops: 3730
Adding flit 70683 as NACK at time 5569
Additional hops: 3734
Adding flit 70898 as NACK at time 5572
Additional hops: 3740
Adding flit 70897 as NACK at time 5578
Reenqueueing errored packet 70898 at time 5581
Additional hops: 3744
Adding flit 71046 as NACK at time 5586
Reenqueueing errored packet 70683 at time 5588
Reenqueueing errored packet 70897 at time 5591
Additional hops: 3746
Adding flit 71196 as NACK at time 5591
Reenqueueing errored packet 71046 at time 5595
Reenqueueing errored packet 71196 at time 5596
Additional hops: 3756
Adding flit 71146 as NACK at time 5613
Additional hops: 3764
Adding flit 71338 as NACK at time 5620
Reenqueueing errored packet 71146 at time 5634
Reenqueueing errored packet 71338 at time 5637
Additional hops: 3773
Adding flit 72079 as NACK at time 5682
Additional hops: 3781
Adding flit 72157 as NACK at time 5685
Additional hops: 3786
Adding flit 72320 as NACK at time 5688
Additional hops: 3791
Adding flit 72384 as NACK at time 5693
Reenqueueing errored packet 72320 at time 5699
Reenqueueing errored packet 72079 at time 5701
Reenqueueing errored packet 72157 at time 5702
Additional hops: 3798
Adding flit 72438 as NACK at time 5703
Reenqueueing errored packet 72384 at time 5704
Additional hops: 3802
Adding flit 72569 as NACK at time 5706
Additional hops: 3811
Adding flit 72479 as NACK at time 5713
Reenqueueing errored packet 72569 at time 5715
Additional hops: 3823
Adding flit 72381 as NACK at time 5715
Reenqueueing errored packet 72438 at time 5718
Additional hops: 3827
Adding flit 72899 as NACK at time 5731
Reenqueueing errored packet 72479 at time 5732
Reenqueueing errored packet 72899 at time 5740
Reenqueueing errored packet 72381 at time 5740
Additional hops: 3831
Adding flit 73120 as NACK at time 5748
Reenqueueing errored packet 73120 at time 5757
Additional hops: 3843
Adding flit 73011 as NACK at time 5763
Additional hops: 3850
Adding flit 73314 as NACK at time 5771
Additional hops: 3862
Adding flit 73174 as NACK at time 5776
Reenqueueing errored packet 73314 at time 5786
Reenqueueing errored packet 73011 at time 5788
Additional hops: 3871
Adding flit 73493 as NACK at time 5791
Additional hops: 3878
Adding flit 73565 as NACK at time 5792
Reenqueueing errored packet 73174 at time 5801
Additional hops: 3885
Adding flit 73722 as NACK at time 5804
Reenqueueing errored packet 73565 at time 5807
Reenqueueing errored packet 73493 at time 5810
Additional hops: 3890
Adding flit 73891 as NACK at time 5810
Reenqueueing errored packet 73722 at time 5819
Reenqueueing errored packet 73891 at time 5821
Additional hops: 3897
Adding flit 74034 as NACK at time 5826
Additional hops: 3905
Adding flit 74153 as NACK at time 5837
Reenqueueing errored packet 74034 at time 5841
Additional hops: 3911
Adding flit 74303 as NACK at time 5845
Reenqueueing errored packet 74153 at time 5854
Reenqueueing errored packet 74303 at time 5858
Additional hops: 3923
Adding flit 74291 as NACK at time 5862
Additional hops: 3931
Adding flit 74448 as NACK at time 5863
Additional hops: 3936
Adding flit 74591 as NACK at time 5865
Reenqueueing errored packet 74591 at time 5876
Reenqueueing errored packet 74448 at time 5880
Reenqueueing errored packet 74291 at time 5887
Additional hops: 3944
Adding flit 74770 as NACK at time 5890
Additional hops: 3951
Adding flit 74917 as NACK at time 5897
Additional hops: 3958
Adding flit 74934 as NACK at time 5898
Additional hops: 3966
Adding flit 74947 as NACK at time 5903
Reenqueueing errored packet 74770 at time 5907
Reenqueueing errored packet 74917 at time 5912
Reenqueueing errored packet 74934 at time 5913
Additional hops: 3968
Adding flit 75382 as NACK at time 5919
Reenqueueing errored packet 74947 at time 5920
Reenqueueing errored packet 75382 at time 5924
Additional hops: 3975
Adding flit 75362 as NACK at time 5935
Reenqueueing errored packet 75362 at time 5950
Additional hops: 3984
Adding flit 75544 as NACK at time 5952
Additional hops: 3993
Adding flit 75504 as NACK at time 5952
Additional hops: 4002
Adding flit 75574 as NACK at time 5954
Additional hops: 4009
Adding flit 75759 as NACK at time 5964
Reenqueueing errored packet 75504 at time 5971
Reenqueueing errored packet 75544 at time 5971
Reenqueueing errored packet 75574 at time 5973
Additional hops: 4019
Adding flit 75751 as NACK at time 5973
Additional hops: 4023
Adding flit 75998 as NACK at time 5973
Additional hops: 4028
Adding flit 75971 as NACK at time 5974
Reenqueueing errored packet 75759 at time 5979
Additional hops: 4033
Adding flit 76053 as NACK at time 5980
Reenqueueing errored packet 75998 at time 5982
Reenqueueing errored packet 75971 at time 5985
Additional hops: 4041
Adding flit 76002 as NACK at time 5986
Reenqueueing errored packet 76053 at time 5991
Reenqueueing errored packet 75751 at time 5994
Additional hops: 4052
Adding flit 76066 as NACK at time 6001
Additional hops: 4057
Adding flit 76324 as NACK at time 6001
Reenqueueing errored packet 76002 at time 6003
Reenqueueing errored packet 76324 at time 6012
Additional hops: 4065
Adding flit 76352 as NACK at time 6013
Additional hops: 4073
Adding flit 76372 as NACK at time 6015
Additional hops: 4079
Adding flit 76526 as NACK at time 6021
Reenqueueing errored packet 76066 at time 6024
Reenqueueing errored packet 76352 at time 6030
Reenqueueing errored packet 76372 at time 6032
Reenqueueing errored packet 76526 at time 6034
Additional hops: 4082
Adding flit 77010 as NACK at time 6049
Reenqueueing errored packet 77010 at time 6056
Additional hops: 4090
Adding flit 77305 as NACK at time 6090
Additional hops: 4095
Adding flit 77496 as NACK at time 6095
Reenqueueing errored packet 77496 at time 6106
Reenqueueing errored packet 77305 at time 6107
Additional hops: 4108
Adding flit 77297 as NACK at time 6108
Additional hops: 4117
Adding flit 77631 as NACK at time 6117
Additional hops: 4121
Adding flit 77876 as NACK at time 6121
Additional hops: 4133
Adding flit 77614 as NACK at time 6125
Additional hops: 4142
Adding flit 77763 as NACK at time 6129
Reenqueueing errored packet 77876 at time 6130
Reenqueueing errored packet 77297 at time 6135
Additional hops: 4151
Adding flit 77860 as NACK at time 6135
Reenqueueing errored packet 77631 at time 6136
Additional hops: 4157
Adding flit 77999 as NACK at time 6137
Reenqueueing errored packet 77763 at time 6148
Reenqueueing errored packet 77999 at time 6150
Reenqueueing errored packet 77614 at time 6150
Additional hops: 4165
Adding flit 78085 as NACK at time 6152
Reenqueueing errored packet 77860 at time 6154
Additional hops: 4172
Adding flit 78317 as NACK at time 6166
Additional hops: 4182
Adding flit 78213 as NACK at time 6167
Reenqueueing errored packet 78085 at time 6169
Additional hops: 4186
Adding flit 78589 as NACK at time 6179
Reenqueueing errored packet 78317 at time 6181
Additional hops: 4195
Adding flit 78440 as NACK at time 6185
Reenqueueing errored packet 78589 at time 6188
Reenqueueing errored packet 78213 at time 6188
Additional hops: 4203
Adding flit 78742 as NACK at time 6203
Reenqueueing errored packet 78440 at time 6204
Additional hops: 4213
Adding flit 78685 as NACK at time 6205
Additional hops: 4217
Adding flit 79010 as NACK at time 6212
Additional hops: 4222
Adding flit 78989 as NACK at time 6213
Additional hops: 4231
Adding flit 78845 as NACK at time 6214
Additional hops: 4241
Adding flit 78838 as NACK at time 6217
Reenqueueing errored packet 78742 at time 6220
Reenqueueing errored packet 79010 at time 6221
Reenqueueing errored packet 78989 at time 6224
Reenqueueing errored packet 78685 at time 6226
Reenqueueing errored packet 78845 at time 6233
Reenqueueing errored packet 78838 at time 6238
Additional hops: 4247
Adding flit 79470 as NACK at time 6254
Additional hops: 4255
Adding flit 79473 as NACK at time 6263
Reenqueueing errored packet 79470 at time 6267
Additional hops: 4260
Adding flit 79697 as NACK at time 6270
Additional hops: 4269
Adding flit 79589 as NACK at time 6273
Additional hops: 4278
Adding flit 79620 as NACK at time 6276
Reenqueueing errored packet 79473 at time 6280
Reenqueueing errored packet 79697 at time 6281
Reenqueueing errored packet 79589 at time 6292
Reenqueueing errored packet 79620 at time 6295
Additional hops: 4292
Adding flit 79673 as NACK at time 6298
Additional hops: 4305
Adding flit 79812 as NACK at time 6304
Additional hops: 4313
Adding flit 80100 as NACK at time 6310
Reenqueueing errored packet 80100 at time 6327
Reenqueueing errored packet 79673 at time 6327
Reenqueueing errored packet 79812 at time 6331
Additional hops: 4323
Adding flit 80316 as NACK at time 6334
Additional hops: 4332
Adding flit 80395 as NACK at time 6338
Reenqueueing errored packet 80316 at time 6355
Reenqueueing errored packet 80395 at time 6357
Additional hops: 4338
Adding flit 80945 as NACK at time 6368
Reenqueueing errored packet 80945 at time 6381
Additional hops: 4341
Adding flit 81492 as NACK at time 6399
Reenqueueing errored packet 81492 at time 6406
Additional hops: 4346
Adding flit 81539 as NACK at time 6410
Reenqueueing errored packet 81539 at time 6421
Additional hops: 4351
Adding flit 81757 as NACK at time 6428
Additional hops: 4359
Adding flit 81681 as NACK at time 6429
Additional hops: 4362
Adding flit 81962 as NACK at time 6437
Additional hops: 4368
Adding flit 81873 as NACK at time 6438
Reenqueueing errored packet 81757 at time 6439
Reenqueueing errored packet 81962 at time 6444
Additional hops: 4378
Adding flit 81806 as NACK at time 6445
Reenqueueing errored packet 81681 at time 6446
Reenqueueing errored packet 81873 at time 6451
Additional hops: 4388
Adding flit 82052 as NACK at time 6463
Reenqueueing errored packet 81806 at time 6466
Additional hops: 4392
Adding flit 82335 as NACK at time 6469
Reenqueueing errored packet 82335 at time 6478
Additional hops: 4400
Adding flit 82351 as NACK at time 6483
Reenqueueing errored packet 82052 at time 6484
Additional hops: 4413
Adding flit 82161 as NACK at time 6484
Additional hops: 4420
Adding flit 82469 as NACK at time 6488
Reenqueueing errored packet 82351 at time 6500
Additional hops: 4425
Adding flit 82702 as NACK at time 6501
Reenqueueing errored packet 82469 at time 6503
Reenqueueing errored packet 82161 at time 6511
Reenqueueing errored packet 82702 at time 6512
Additional hops: 4434
Adding flit 82744 as NACK at time 6515
Additional hops: 4442
Adding flit 82959 as NACK at time 6528
Reenqueueing errored packet 82744 at time 6534
Reenqueueing errored packet 82959 at time 6545
Additional hops: 4451
Adding flit 83215 as NACK at time 6551
Reenqueueing errored packet 83215 at time 6570
Additional hops: 4461
Adding flit 83485 as NACK at time 6576
Reenqueueing errored packet 83485 at time 6597
Additional hops: 4466
Adding flit 84044 as NACK at time 6608
Reenqueueing errored packet 84044 at time 6619
Additional hops: 4477
Adding flit 84352 as NACK at time 6651
Additional hops: 4486
Adding flit 84448 as NACK at time 6652
Additional hops: 4491
Adding flit 84608 as NACK at time 6653
Additional hops: 4495
Adding flit 84705 as NACK at time 6658
Reenqueueing errored packet 84608 at time 6664
Reenqueueing errored packet 84705 at time 6667
Additional hops: 4503
Adding flit 84671 as NACK at time 6668
Additional hops: 4509
Adding flit 84767 as NACK at time 6668
Reenqueueing errored packet 84448 at time 6671
Reenqueueing errored packet 84352 at time 6674
Reenqueueing errored packet 84767 at time 6681
Reenqueueing errored packet 84671 at time 6685
Additional hops: 4515
Adding flit 84967 as NACK at time 6685
Reenqueueing errored packet 84967 at time 6698
Additional hops: 4523
Adding flit 85116 as NACK at time 6706
Additional hops: 4529
Adding flit 85240 as NACK at time 6706
Additional hops: 4538
Adding flit 85147 as NACK at time 6708
Additional hops: 4546
Adding flit 85236 as NACK at time 6711
Additional hops: 4556
Adding flit 85200 as NACK at time 6716
Reenqueueing errored packet 85240 at time 6719
Reenqueueing errored packet 85116 at time 6723
Additional hops: 4568
Adding flit 85247 as NACK at time 6724
Reenqueueing errored packet 85147 at time 6727
Additional hops: 4577
Adding flit 85395 as NACK at time 6727
Reenqueueing errored packet 85236 at time 6728
Additional hops: 4579
Adding flit 85725 as NACK at time 6729
Reenqueueing errored packet 85725 at time 6734
Reenqueueing errored packet 85200 at time 6737
Reenqueueing errored packet 85395 at time 6746
Reenqueueing errored packet 85247 at time 6749
Additional hops: 4586
Adding flit 85868 as NACK at time 6756
Reenqueueing errored packet 85868 at time 6771
Additional hops: 4598
Adding flit 86003 as NACK at time 6781
Additional hops: 4607
Adding flit 86104 as NACK at time 6781
Additional hops: 4616
Adding flit 86144 as NACK at time 6785
Additional hops: 4623
Adding flit 86304 as NACK at time 6790
Additional hops: 4627
Adding flit 86429 as NACK at time 6791
Additional hops: 4634
Adding flit 86366 as NACK at time 6796
Reenqueueing errored packet 86429 at time 6800
Reenqueueing errored packet 86104 at time 6800
Additional hops: 4641
Adding flit 86436 as NACK at time 6802
Reenqueueing errored packet 86144 at time 6804
Reenqueueing errored packet 86304 at time 6805
Reenqueueing errored packet 86003 at time 6806
Reenqueueing errored packet 86366 at time 6811
Reenqueueing errored packet 86436 at time 6817
Additional hops: 4649
Adding flit 86688 as NACK at time 6825
Reenqueueing errored packet 86688 at time 6842
Additional hops: 4659
Adding flit 87014 as NACK at time 6855
Reenqueueing errored packet 87014 at time 6876
Additional hops: 4661
Adding flit 87693 as NACK at time 6879
Reenqueueing errored packet 87693 at time 6884
Additional hops: 4669
Adding flit 87611 as NACK at time 6889
Additional hops: 4675
Adding flit 87852 as NACK at time 6904
Reenqueueing errored packet 87611 at time 6906
Additional hops: 4682
Adding flit 87925 as NACK at time 6912
Reenqueueing errored packet 87852 at time 6917
Additional hops: 4694
Adding flit 87858 as NACK at time 6923
Reenqueueing errored packet 87925 at time 6927
Additional hops: 4701
Adding flit 88157 as NACK at time 6931
Additional hops: 4707
Adding flit 88291 as NACK at time 6938
Reenqueueing errored packet 88157 at time 6946
Reenqueueing errored packet 87858 at time 6948
Reenqueueing errored packet 88291 at time 6951
Additional hops: 4711
Adding flit 88570 as NACK at time 6955
Additional hops: 4726
Adding flit 88238 as NACK at time 6961
Reenqueueing errored packet 88570 at time 6964
Additional hops: 4730
Adding flit 88725 as NACK at time 6968
Reenqueueing errored packet 88725 at time 6977
Additional hops: 4740
Adding flit 88702 as NACK at time 6985
Reenqueueing errored packet 88238 at time 6992
Additional hops: 4744
Adding flit 89064 as NACK at time 6994
Additional hops: 4750
Adding flit 89045 as NACK at time 6999
Additional hops: 4759
Adding flit 88947 as NACK at time 7001
Reenqueueing errored packet 89064 at time 7003
Additional hops: 4765
Adding flit 89111 as NACK at time 7004
Reenqueueing errored packet 88702 at time 7006
Reenqueueing errored packet 89045 at time 7012
Reenqueueing errored packet 89111 at time 7017
Reenqueueing errored packet 88947 at time 7020
Additional hops: 4771
Adding flit 89328 as NACK at time 7021
Additional hops: 4775
Adding flit 89518 as NACK at time 7028
Reenqueueing errored packet 89328 at time 7034
Reenqueueing errored packet 89518 at time 7037
Additional hops: 4782
Adding flit 89573 as NACK at time 7044
Additional hops: 4794
Adding flit 89428 as NACK at time 7048
Reenqueueing errored packet 89573 at time 7059
Additional hops: 4804
Adding flit 89846 as NACK at time 7070
Reenqueueing errored packet 89428 at time 7073
Additional hops: 4807
Adding flit 90160 as NACK at time 7076
Additional hops: 4814
Adding flit 90036 as NACK at time 7077
Additional hops: 4817
Adding flit 90219 as NACK at time 7081
Reenqueueing errored packet 90160 at time 7083
Reenqueueing errored packet 90219 at time 7088
Reenqueueing errored packet 89846 at time 7091
Reenqueueing errored packet 90036 at time 7092
Additional hops: 4823
Adding flit 90255 as NACK at time 7092
Additional hops: 4833
Adding flit 90251 as NACK at time 7104
Reenqueueing errored packet 90255 at time 7105
Additional hops: 4837
Adding flit 90673 as NACK at time 7119
Reenqueueing errored packet 90251 at time 7125
Reenqueueing errored packet 90673 at time 7128
Additional hops: 4840
Adding flit 90988 as NACK at time 7139
Reenqueueing errored packet 90988 at time 7146
Additional hops: 4848
Adding flit 91103 as NACK at time 7162
Additional hops: 4855
Adding flit 91278 as NACK at time 7172
Additional hops: 4860
Adding flit 91398 as NACK at time 7176
Reenqueueing errored packet 91103 at time 7179
Reenqueueing errored packet 91398 at time 7187
Reenqueueing errored packet 91278 at time 7187
Additional hops: 4873
Adding flit 91521 as NACK at time 7211
Additional hops: 4881
Adding flit 91782 as NACK at time 7217
Additional hops: 4885
Adding flit 92097 as NACK at time 7229
Additional hops: 4891
Adding flit 91974 as NACK at time 7229
Reenqueueing errored packet 91782 at time 7234
Reenqueueing errored packet 92097 at time 7238
Reenqueueing errored packet 91521 at time 7238
Reenqueueing errored packet 91974 at time 7242
Additional hops: 4899
Adding flit 92169 as NACK at time 7247
Additional hops: 4909
Adding flit 92121 as NACK at time 7249
Additional hops: 4919
Adding flit 92261 as NACK at time 7259
Reenqueueing errored packet 92169 at time 7264
Reenqueueing errored packet 92121 at time 7270
Additional hops: 4924
Adding flit 92629 as NACK at time 7273
Reenqueueing errored packet 92261 at time 7280
Reenqueueing errored packet 92629 at time 7284
Additional hops: 4929
Adding flit 92905 as NACK at time 7296
Additional hops: 4939
Adding flit 92744 as NACK at time 7299
Reenqueueing errored packet 92905 at time 7307
Reenqueueing errored packet 92744 at time 7320
Additional hops: 4942
Adding flit 93280 as NACK at time 7321
Additional hops: 4950
Adding flit 93155 as NACK at time 7327
Reenqueueing errored packet 93280 at time 7328
Additional hops: 4952
Adding flit 93397 as NACK at time 7329
Reenqueueing errored packet 93397 at time 7334
Reenqueueing errored packet 93155 at time 7344
Additional hops: 4957
Adding flit 93479 as NACK at time 7344
Additional hops: 4962
Adding flit 93551 as NACK at time 7351
Reenqueueing errored packet 93479 at time 7355
Reenqueueing errored packet 93551 at time 7362
Additional hops: 4970
Adding flit 93812 as NACK at time 7380
Additional hops: 4977
Adding flit 93958 as NACK at time 7389
Reenqueueing errored packet 93812 at time 7397
Additional hops: 4980
Adding flit 94245 as NACK at time 7398
Reenqueueing errored packet 93958 at time 7404
Reenqueueing errored packet 94245 at time 7405
Additional hops: 4984
Adding flit 94304 as NACK at time 7407
Reenqueueing errored packet 94304 at time 7416
Additional hops: 4990
Adding flit 94367 as NACK at time 7417
Additional hops: 4993
Adding flit 94542 as NACK at time 7423
Additional hops: 4999
Adding flit 94422 as NACK at time 7424
Reenqueueing errored packet 94542 at time 7430
Reenqueueing errored packet 94367 at time 7430
Reenqueueing errored packet 94422 at time 7437
Additional hops: 5012
Adding flit 94321 as NACK at time 7437
Additional hops: 5020
Adding flit 94547 as NACK at time 7439
Additional hops: 5024
Adding flit 94740 as NACK at time 7443
Reenqueueing errored packet 94740 at time 7452
Reenqueueing errored packet 94547 at time 7456
Reenqueueing errored packet 94321 at time 7464
Additional hops: 5039
Adding flit 94603 as NACK at time 7464
Additional hops: 5050
Adding flit 94807 as NACK at time 7470
Additional hops: 5058
Adding flit 94949 as NACK at time 7475
Additional hops: 5062
Adding flit 95243 as NACK at time 7485
Reenqueueing errored packet 94949 at time 7492
Reenqueueing errored packet 94807 at time 7493
Reenqueueing errored packet 95243 at time 7494
Reenqueueing errored packet 94603 at time 7495
Additional hops: 5070
Adding flit 95437 as NACK at time 7513
Additional hops: 5075
Adding flit 95713 as NACK at time 7524
Reenqueueing errored packet 95437 at time 7530
Reenqueueing errored packet 95713 at time 7535
Additional hops: 5083
Adding flit 95915 as NACK at time 7547
Additional hops: 5089
Adding flit 96102 as NACK at time 7556
Additional hops: 5098
Adding flit 96018 as NACK at time 7560
Reenqueueing errored packet 95915 at time 7564
Reenqueueing errored packet 96102 at time 7569
Additional hops: 5107
Adding flit 96188 as NACK at time 7571
Reenqueueing errored packet 96018 at time 7579
Reenqueueing errored packet 96188 at time 7590
Additional hops: 5116
Adding flit 96724 as NACK at time 7615
Reenqueueing errored packet 96724 at time 7634
Additional hops: 5123
Adding flit 97238 as NACK at time 7645
Reenqueueing errored packet 97238 at time 7660
Additional hops: 5132
Adding flit 97402 as NACK at time 7666
Reenqueueing errored packet 97402 at time 7685
Additional hops: 5139
Adding flit 97878 as NACK at time 7695
Additional hops: 5145
Adding flit 98012 as NACK at time 7701
Reenqueueing errored packet 97878 at time 7710
Reenqueueing errored packet 98012 at time 7714
Additional hops: 5154
Adding flit 98491 as NACK at time 7749
Reenqueueing errored packet 98491 at time 7768
Additional hops: 5162
Adding flit 98825 as NACK at time 7773
Additional hops: 5166
Adding flit 99030 as NACK at time 7776
Reenqueueing errored packet 99030 at time 7785
Reenqueueing errored packet 98825 at time 7790
Additional hops: 5178
Adding flit 98895 as NACK at time 7790
Additional hops: 5189
Adding flit 98955 as NACK at time 7791
Additional hops: 5195
Adding flit 99251 as NACK at time 7801
Reenqueueing errored packet 99251 at time 7814
Reenqueueing errored packet 98955 at time 7814
Reenqueueing errored packet 98895 at time 7815
Additional hops: 5200
Adding flit 99558 as NACK at time 7820
Additional hops: 5203
Adding flit 99739 as NACK at time 7830
Reenqueueing errored packet 99558 at time 7831
Reenqueueing errored packet 99739 at time 7837
Additional hops: 5207
Adding flit 99791 as NACK at time 7837
Additional hops: 5216
Adding flit 99618 as NACK at time 7839
Reenqueueing errored packet 99791 at time 7846
Additional hops: 5225
Adding flit 99761 as NACK at time 7851
Additional hops: 5233
Adding flit 99896 as NACK at time 7857
Reenqueueing errored packet 99618 at time 7858
Additional hops: 5239
Adding flit 100071 as NACK at time 7864
Reenqueueing errored packet 99761 at time 7870
Reenqueueing errored packet 99896 at time 7874
Reenqueueing errored packet 100071 at time 7877
Additional hops: 5248
Adding flit 100261 as NACK at time 7889
Additional hops: 5256
Adding flit 100508 as NACK at time 7904
Reenqueueing errored packet 100261 at time 7908
[...]
Additional hops: 39414
Adding flit 745118 as NACK at time 58203
Reenqueueing errored packet 744878 at time 58211
Reenqueueing errored packet 745118 at time 58216
Additional hops: 39419
Adding flit 745363 as NACK at time 58219
Additional hops: 39428
Adding flit 745311 as NACK at time 58227
Reenqueueing errored packet 745363 at time 58230
Additional hops: 39435
Adding flit 745414 as NACK at time 58230
Additional hops: 39442
Adding flit 745536 as NACK at time 58240
Reenqueueing errored packet 745414 at time 58245
Reenqueueing errored packet 745311 at time 58246
Reenqueueing errored packet 745536 at time 58255
Additional hops: 39444
Adding flit 745953 as NACK at time 58257
Additional hops: 39452
Adding flit 745786 as NACK at time 58261
Reenqueueing errored packet 745953 at time 58262
Additional hops: 39464
Adding flit 745623 as NACK at time 58265
Additional hops: 39475
Adding flit 745712 as NACK at time 58266
Additional hops: 39480
Adding flit 746037 as NACK at time 58274
Reenqueueing errored packet 745786 at time 58278
Reenqueueing errored packet 746037 at time 58285
Additional hops: 39489
Adding flit 746059 as NACK at time 58287
Additional hops: 39499
Adding flit 745972 as NACK at time 58287
Reenqueueing errored packet 745712 at time 58289
Reenqueueing errored packet 745623 at time 58290
Reenqueueing errored packet 746059 at time 58306
Reenqueueing errored packet 745972 at time 58308
Additional hops: 39506
Adding flit 746571 as NACK at time 58324
Additional hops: 39515
Adding flit 746600 as NACK at time 58332
Reenqueueing errored packet 746571 at time 58339
Additional hops: 39519
Adding flit 746924 as NACK at time 58340
Reenqueueing errored packet 746924 at time 58349
Reenqueueing errored packet 746600 at time 58351
Additional hops: 39525
Adding flit 748155 as NACK at time 58445
Additional hops: 39528
Adding flit 748307 as NACK at time 58448
Additional hops: 39532
Adding flit 748275 as NACK at time 58449
Reenqueueing errored packet 748307 at time 58455
Reenqueueing errored packet 748275 at time 58458
Reenqueueing errored packet 748155 at time 58458
Additional hops: 39538
Adding flit 748282 as NACK at time 58458
Reenqueueing errored packet 748282 at time 58471
Additional hops: 39544
Adding flit 748567 as NACK at time 58480
Additional hops: 39551
Adding flit 748677 as NACK at time 58492
Reenqueueing errored packet 748567 at time 58493
Additional hops: 39563
Adding flit 748540 as NACK at time 58496
Reenqueueing errored packet 748677 at time 58507
Additional hops: 39569
Adding flit 749017 as NACK at time 58517
Additional hops: 39578
Adding flit 748899 as NACK at time 58518
Reenqueueing errored packet 748540 at time 58521
Additional hops: 39589
Adding flit 748993 as NACK at time 58529
Reenqueueing errored packet 749017 at time 58530
Reenqueueing errored packet 748899 at time 58537
Additional hops: 39597
Adding flit 749244 as NACK at time 58540
Additional hops: 39603
Adding flit 749435 as NACK at time 58549
Reenqueueing errored packet 748993 at time 58552
Reenqueueing errored packet 749244 at time 58557
Reenqueueing errored packet 749435 at time 58562
Additional hops: 39609
Adding flit 750048 as NACK at time 58595
Reenqueueing errored packet 750048 at time 58608
Additional hops: 39614
Adding flit 750785 as NACK at time 58650
Reenqueueing errored packet 750785 at time 58661
Additional hops: 39621
Adding flit 751066 as NACK at time 58679
Additional hops: 39631
Adding flit 751073 as NACK at time 58690
Additional hops: 39643
Adding flit 751007 as NACK at time 58691
Additional hops: 39656
Adding flit 750994 as NACK at time 58693
Reenqueueing errored packet 751066 at time 58694
Additional hops: 39661
Adding flit 751455 as NACK at time 58702
Additional hops: 39664
Adding flit 751541 as NACK at time 58704
Reenqueueing errored packet 751541 at time 58711
Reenqueueing errored packet 751073 at time 58711
Reenqueueing errored packet 751455 at time 58713
Reenqueueing errored packet 751007 at time 58716
Reenqueueing errored packet 750994 at time 58720
Additional hops: 39674
Adding flit 751519 as NACK at time 58729
Additional hops: 39680
Adding flit 751966 as NACK at time 58746
Additional hops: 39686
Adding flit 751989 as NACK at time 58749
Reenqueueing errored packet 751519 at time 58750
Additional hops: 39692
Adding flit 752130 as NACK at time 58758
Reenqueueing errored packet 751966 at time 58759
Reenqueueing errored packet 751989 at time 58762
Additional hops: 39703
Adding flit 751953 as NACK at time 58762
Additional hops: 39709
Adding flit 752175 as NACK at time 58762
Reenqueueing errored packet 752130 at time 58771
Reenqueueing errored packet 752175 at time 58775
Reenqueueing errored packet 751953 at time 58785
Additional hops: 39720
Adding flit 752655 as NACK at time 58814
Reenqueueing errored packet 752655 at time 58837
Additional hops: 39727
Adding flit 753274 as NACK at time 58852
Additional hops: 39732
Adding flit 753465 as NACK at time 58861
Reenqueueing errored packet 753274 at time 58867
Additional hops: 39742
Adding flit 753391 as NACK at time 58870
Reenqueueing errored packet 753465 at time 58872
Additional hops: 39746
Adding flit 753730 as NACK at time 58879
Reenqueueing errored packet 753730 at time 58888
Reenqueueing errored packet 753391 at time 58891
Additional hops: 39752
Adding flit 753828 as NACK at time 58894
Additional hops: 39756
Adding flit 754060 as NACK at time 58905
Reenqueueing errored packet 753828 at time 58907
Reenqueueing errored packet 754060 at time 58914
Additional hops: 39761
Adding flit 754301 as NACK at time 58927
Additional hops: 39769
Adding flit 754223 as NACK at time 58932
Additional hops: 39776
Adding flit 754326 as NACK at time 58936
Reenqueueing errored packet 754301 at time 58938
Additional hops: 39786
Adding flit 754269 as NACK at time 58941
Additional hops: 39791
Adding flit 754537 as NACK at time 58946
Reenqueueing errored packet 754223 at time 58949
Additional hops: 39798
Adding flit 754485 as NACK at time 58950
Reenqueueing errored packet 754326 at time 58951
Reenqueueing errored packet 754537 at time 58957
Reenqueueing errored packet 754269 at time 58962
Reenqueueing errored packet 754485 at time 58965
Additional hops: 39808
Adding flit 754578 as NACK at time 58965
Additional hops: 39815
Adding flit 754925 as NACK at time 58983
Additional hops: 39826
Adding flit 754803 as NACK at time 58985
Reenqueueing errored packet 754578 at time 58986
Reenqueueing errored packet 754925 at time 58998
Reenqueueing errored packet 754803 at time 59008
Additional hops: 39833
Adding flit 755412 as NACK at time 59018
Additional hops: 39835
Adding flit 755763 as NACK at time 59031
Reenqueueing errored packet 755412 at time 59033
Reenqueueing errored packet 755763 at time 59036
Additional hops: 39842
Adding flit 755627 as NACK at time 59038
Additional hops: 39849
Adding flit 755774 as NACK at time 59047
Reenqueueing errored packet 755627 at time 59053
Reenqueueing errored packet 755774 at time 59062
Additional hops: 39860
Adding flit 755759 as NACK at time 59062
Additional hops: 39870
Adding flit 755896 as NACK at time 59066
Additional hops: 39875
Adding flit 756244 as NACK at time 59079
Reenqueueing errored packet 755759 at time 59085
Reenqueueing errored packet 755896 at time 59087
Reenqueueing errored packet 756244 at time 59090
Additional hops: 39878
Adding flit 756557 as NACK at time 59096
Additional hops: 39882
Adding flit 756535 as NACK at time 59098
Reenqueueing errored packet 756557 at time 59103
Reenqueueing errored packet 756535 at time 59107
Additional hops: 39890
Adding flit 756696 as NACK at time 59122
Additional hops: 39899
Adding flit 756823 as NACK at time 59138
Reenqueueing errored packet 756696 at time 59139
Reenqueueing errored packet 756823 at time 59157
Additional hops: 39903
Adding flit 757325 as NACK at time 59164
Additional hops: 39913
Adding flit 757179 as NACK at time 59168
Reenqueueing errored packet 757325 at time 59173
Additional hops: 39921
Adding flit 757423 as NACK at time 59183
Additional hops: 39929
Adding flit 757325 as NACK at time 59187
Additional hops: 39933
Adding flit 757602 as NACK at time 59187
Reenqueueing errored packet 757179 at time 59189
Reenqueueing errored packet 757602 at time 59196
Additional hops: 39941
Adding flit 757596 as NACK at time 59198
Reenqueueing errored packet 757423 at time 59200
Additional hops: 39947
Adding flit 757717 as NACK at time 59203
Reenqueueing errored packet 757325 at time 59204
Reenqueueing errored packet 757596 at time 59215
Additional hops: 39952
Adding flit 757898 as NACK at time 59215
Additional hops: 39954
Adding flit 758036 as NACK at time 59215
Reenqueueing errored packet 757717 at time 59216
Reenqueueing errored packet 758036 at time 59220
Reenqueueing errored packet 757898 at time 59226
Additional hops: 39963
Adding flit 757989 as NACK at time 59233
Reenqueueing errored packet 757989 at time 59252
Additional hops: 39969
Adding flit 758350 as NACK at time 59253
Reenqueueing errored packet 758350 at time 59266
Additional hops: 39979
Adding flit 758378 as NACK at time 59266
Additional hops: 39990
Adding flit 758390 as NACK at time 59269
Reenqueueing errored packet 758378 at time 59287
Additional hops: 39999
Adding flit 758689 as NACK at time 59288
Reenqueueing errored packet 758390 at time 59292
Additional hops: 40009
Adding flit 758841 as NACK at time 59303
Reenqueueing errored packet 758689 at time 59307
Reenqueueing errored packet 758841 at time 59324
Additional hops: 40018
Adding flit 759341 as NACK at time 59336
Additional hops: 40025
Adding flit 759450 as NACK at time 59337
Reenqueueing errored packet 759450 at time 59352
Reenqueueing errored packet 759341 at time 59355
Additional hops: 40033
Adding flit 759781 as NACK at time 59365
Additional hops: 40036
Adding flit 759970 as NACK at time 59366
Additional hops: 40047
Adding flit 759687 as NACK at time 59370
Reenqueueing errored packet 759970 at time 59373
Additional hops: 40052
Adding flit 760003 as NACK at time 59375
Additional hops: 40059
Adding flit 759979 as NACK at time 59378
Reenqueueing errored packet 759781 at time 59382
Reenqueueing errored packet 760003 at time 59386
Additional hops: 40062
Adding flit 760218 as NACK at time 59386
Additional hops: 40068
Adding flit 760135 as NACK at time 59387
Reenqueueing errored packet 760218 at time 59393
Reenqueueing errored packet 759979 at time 59393
Reenqueueing errored packet 759687 at time 59393
Reenqueueing errored packet 760135 at time 59400
Additional hops: 40074
Adding flit 760417 as NACK at time 59409
Additional hops: 40083
Adding flit 760381 as NACK at time 59418
Reenqueueing errored packet 760417 at time 59422
Reenqueueing errored packet 760381 at time 59437
Additional hops: 40089
Adding flit 760786 as NACK at time 59438
Additional hops: 40096
Adding flit 760765 as NACK at time 59439
Additional hops: 40098
Adding flit 761052 as NACK at time 59448
Additional hops: 40102
Adding flit 760994 as NACK at time 59448
Reenqueueing errored packet 760786 at time 59451
Reenqueueing errored packet 761052 at time 59453
Reenqueueing errored packet 760765 at time 59454
Reenqueueing errored packet 760994 at time 59457
Additional hops: 40111
Adding flit 761085 as NACK at time 59472
Additional hops: 40115
Adding flit 761341 as NACK at time 59478
Additional hops: 40120
Adding flit 761356 as NACK at time 59484
Reenqueueing errored packet 761341 at time 59487
Reenqueueing errored packet 761085 at time 59491
Reenqueueing errored packet 761356 at time 59495
Additional hops: 40123
Adding flit 761658 as NACK at time 59498
Reenqueueing errored packet 761658 at time 59505
Additional hops: 40131
Adding flit 761670 as NACK at time 59515
Additional hops: 40149
Adding flit 761085 as NACK at time 59521
Additional hops: 40158
Adding flit 761697 as NACK at time 59523
Additional hops: 40163
Adding flit 761918 as NACK at time 59524
Reenqueueing errored packet 761670 at time 59532
Reenqueueing errored packet 761918 at time 59535
Reenqueueing errored packet 761697 at time 59542
Additional hops: 40168
Adding flit 762322 as NACK at time 59555
Additional hops: 40176
Adding flit 762215 as NACK at time 59556
Reenqueueing errored packet 761085 at time 59558
Additional hops: 40181
Adding flit 762395 as NACK at time 59560
Additional hops: 40190
Adding flit 762300 as NACK at time 59564
Reenqueueing errored packet 762322 at time 59566
Reenqueueing errored packet 762395 at time 59571
Reenqueueing errored packet 762215 at time 59573
Additional hops: 40199
Adding flit 762402 as NACK at time 59573
Additional hops: 40206
Adding flit 762514 as NACK at time 59574
Additional hops: 40214
Adding flit 762511 as NACK at time 59576
Reenqueueing errored packet 762300 at time 59583
Reenqueueing errored packet 762514 at time 59589
Reenqueueing errored packet 762402 at time 59592
Reenqueueing errored packet 762511 at time 59593
Additional hops: 40219
Adding flit 762881 as NACK at time 59596
Additional hops: 40227
Adding flit 762765 as NACK at time 59596
Additional hops: 40232
Adding flit 762913 as NACK at time 59600
Additional hops: 40239
Adding flit 762898 as NACK at time 59604
Reenqueueing errored packet 762881 at time 59607
Reenqueueing errored packet 762913 at time 59611
Reenqueueing errored packet 762765 at time 59613
Additional hops: 40244
Adding flit 763183 as NACK at time 59618
Reenqueueing errored packet 762898 at time 59619
Reenqueueing errored packet 763183 at time 59629
Additional hops: 40250
Adding flit 763314 as NACK at time 59630
Reenqueueing errored packet 763314 at time 59643
Additional hops: 40257
Adding flit 763932 as NACK at time 59680
Reenqueueing errored packet 763932 at time 59695
Additional hops: 40263
Adding flit 764251 as NACK at time 59703
Reenqueueing errored packet 764251 at time 59716
Additional hops: 40268
Adding flit 764605 as NACK at time 59728
Additional hops: 40274
Adding flit 764591 as NACK at time 59730
Additional hops: 40288
Adding flit 764273 as NACK at time 59730
Additional hops: 40296
Adding flit 764585 as NACK at time 59735
Reenqueueing errored packet 764605 at time 59739
Reenqueueing errored packet 764591 at time 59743
Additional hops: 40301
Adding flit 764850 as NACK at time 59750
Reenqueueing errored packet 764585 at time 59752
Reenqueueing errored packet 764273 at time 59759
Additional hops: 40308
Adding flit 764918 as NACK at time 59759
Reenqueueing errored packet 764850 at time 59761
Additional hops: 40313
Adding flit 765104 as NACK at time 59768
Reenqueueing errored packet 764918 at time 59774
Additional hops: 40320
Adding flit 765158 as NACK at time 59777
Reenqueueing errored packet 765104 at time 59779
Reenqueueing errored packet 765158 at time 59792
Additional hops: 40329
Adding flit 765329 as NACK at time 59797
Additional hops: 40334
Adding flit 765487 as NACK at time 59798
Additional hops: 40339
Adding flit 765577 as NACK at time 59804
Reenqueueing errored packet 765487 at time 59809
Reenqueueing errored packet 765577 at time 59815
Reenqueueing errored packet 765329 at time 59816
Additional hops: 40348
Adding flit 765615 as NACK at time 59819
Additional hops: 40351
Adding flit 765906 as NACK at time 59824
Additional hops: 40360
Adding flit 765709 as NACK at time 59826
Additional hops: 40370
Adding flit 765702 as NACK at time 59828
Reenqueueing errored packet 765906 at time 59831
Reenqueueing errored packet 765615 at time 59838
Reenqueueing errored packet 765709 at time 59845
Additional hops: 40379
Adding flit 765952 as NACK at time 59846
Reenqueueing errored packet 765702 at time 59849
Additional hops: 40381
Adding flit 766429 as NACK at time 59863
Reenqueueing errored packet 765952 at time 59865
Additional hops: 40389
Adding flit 766231 as NACK at time 59866
Reenqueueing errored packet 766429 at time 59868
Additional hops: 40393
Adding flit 766444 as NACK at time 59871
Additional hops: 40400
Adding flit 766420 as NACK at time 59879
Reenqueueing errored packet 766444 at time 59880
Reenqueueing errored packet 766231 at time 59883
Reenqueueing errored packet 766420 at time 59894
Additional hops: 40409
Adding flit 766533 as NACK at time 59894
Additional hops: 40418
Adding flit 766671 as NACK at time 59904
Reenqueueing errored packet 766533 at time 59913
Reenqueueing errored packet 766671 at time 59923
Additional hops: 40423
Adding flit 767091 as NACK at time 59926
Additional hops: 40430
Adding flit 767086 as NACK at time 59932
Reenqueueing errored packet 767091 at time 59937
Reenqueueing errored packet 767086 at time 59947
Additional hops: 40439
Adding flit 767788 as NACK at time 59994
Class 0:
Packet latency average = 21.6711
	minimum = 5
	maximum = 238
Network latency average = 21.3803
	minimum = 5
	maximum = 56
Slowest packet = 384756
Flit latency average = 21.3826
	minimum = 5
	maximum = 56
Slowest flit = 435393
Fragmentation average = 0
	minimum = 0
	maximum = 0
Injected packet rate average = 0.201472
	minimum = 0.196433 (at node 36)
	maximum = 0.2063 (at node 3)
Accepted packet rate average = 0.20148
	minimum = 0.195367 (at node 62)
	maximum = 0.2076 (at node 37)
Injected flit rate average = 0.201472
	minimum = 0.196433 (at node 36)
	maximum = 0.2063 (at node 3)
Accepted flit rate average= 0.20148
	minimum = 0.195367 (at node 62)
	maximum = 0.2076 (at node 37)
Injected packet length average = 1
Accepted packet length average = 1
Total in-flight flits = 268 (268 measured)
latency change    = 0.000314871
throughput change = 0.00141919
Draining all recorded packets ...
Reenqueueing errored packet 767788 at time 60013
Class 0:
Remaining flits: 542298 780360 780446 780475 780497 780508 780513 780521 780532 780536 [...] (288 flits)
Measured flits: 542298 (1 flits)
Class 0:
Remaining flits: 542298 793356 793366 793367 793378 793395 793396 793402 793409 793429 [...] (304 flits)
Measured flits: 542298 (1 flits)
Class 0:
Remaining flits: 542298 806189 806286 806316 806324 806330 806336 806339 806345 806351 [...] (283 flits)
Measured flits: 542298 (1 flits)
Class 0:
Remaining flits: 542298 818971 818972 818983 819023 819031 819051 819055 819056 819057 [...] (284 flits)
Measured flits: 542298 (1 flits)
Class 0:
Remaining flits: 542298 831734 831739 831795 831834 831840 831844 831854 831861 831863 [...] (274 flits)
Measured flits: 542298 (1 flits)
Class 0:
Remaining flits: 542298 844559 844574 844589 844608 844614 844635 844641 844642 844644 [...] (256 flits)
Measured flits: 542298 (1 flits)
Class 0:
Remaining flits: 542298 857306 857332 857365 857366 857387 857399 857419 857430 857446 [...] (279 flits)
Measured flits: 542298 (1 flits)
Draining remaining packets ...
Class 0:
Remaining flits: 542298 (1 flits)
Measured flits: 542298 (1 flits)
WARNING: Possible network deadlock.
Class 0:
Remaining flits: 542298 (1 flits)
Measured flits: 542298 (1 flits)
WARNING: Possible network deadlock.
Class 0:
Remaining flits: 542298 (1 flits)
Measured flits: 542298 (1 flits)
WARNING: Possible network deadlock.
Class 0:
Remaining flits: 542298 (1 flits)
Measured flits: 542298 (1 flits)
Time taken is 68000 cycles
====== Overall Traffic Statistics ======
====== Traffic class 0 ======
Packet latency average = 21.6733 (1 samples)
	minimum = 5 (1 samples)
	maximum = 238 (1 samples)
Network latency average = 21.3826 (1 samples)
	minimum = 5 (1 samples)
	maximum = 56 (1 samples)
Flit latency average = 21.3819 (1 samples)
	minimum = 5 (1 samples)
	maximum = 56 (1 samples)
Fragmentation average = 0 (1 samples)
	minimum = 0 (1 samples)
	maximum = 0 (1 samples)
Injected packet rate average = 0.201472 (1 samples)
	minimum = 0.196433 (1 samples)
	maximum = 0.2063 (1 samples)
Accepted packet rate average = 0.20148 (1 samples)
	minimum = 0.195367 (1 samples)
	maximum = 0.2076 (1 samples)
Injected flit rate average = 0.201472 (1 samples)
	minimum = 0.196433 (1 samples)
	maximum = 0.2063 (1 samples)
Accepted flit rate average = 0.20148 (1 samples)
	minimum = 0.195367 (1 samples)
	maximum = 0.2076 (1 samples)
Injected packet size average = 1 (1 samples)
Accepted packet size average = 1 (1 samples)
Hops average = 6.30099 (1 samples)
Total run time 138.608
