BEGIN Configuration File: examples/ecc_mesh88_config_0_0.900_packet_3
// $Id$

// Copyright (c) 2007-2015, Trustees of The Leland Stanford Junior University
// All rights reserved.
//
// Redistribution and use in source and binary forms, with or without
// modification, are permitted provided that the following conditions are met:
//
// Redistributions of source code must retain the above copyright notice, this
// list of conditions and the following disclaimer.
// Redistributions in binary form must reproduce the above copyright notice,
// this list of conditions and the following disclaimer in the documentation
// and/or other materials provided with the distribution.
//
// THIS SOFTWARE IS PROVIDED BY THE COPYRIGHT HOLDERS AND CONTRIBUTORS "AS IS"
// AND ANY EXPRESS OR IMPLIED WARRANTIES, INCLUDING, BUT NOT LIMITED TO, THE
// IMPLIED WARRANTIES OF MERCHANTABILITY AND FITNESS FOR A PARTICULAR PURPOSE
// ARE DISCLAIMED. IN NO EVENT SHALL THE COPYRIGHT OWNER OR CONTRIBUTORS BE
// LIABLE FOR ANY DIRECT, INDIRECT, INCIDENTAL, SPECIAL, EXEMPLARY, OR
// CONSEQUENTIAL DAMAGES (INCLUDING, BUT NOT LIMITED TO, PROCUREMENT OF
// SUBSTITUTE GOODS OR SERVICES; LOSS OF USE, DATA, OR PROFITS; OR BUSINESS
// INTERRUPTION) HOWEVER CAUSED AND ON ANY THEORY OF LIABILITY, WHETHER IN
// CONTRACT, STRICT LIABILITY, OR TORT (INCLUDING NEGLIGENCE OR OTHERWISE)
// ARISING IN ANY WAY OUT OF THE USE OF THIS SOFTWARE, EVEN IF ADVISED OF THE
// POSSIBILITY OF SUCH DAMAGE.

// Dragonfly
//




vc_buf_size = 256;


wait_for_tail_credit = 0;

//
// Router architecture
//
vc_allocator = separable_input_first; 
sw_allocator = separable_input_first;
alloc_iters  = 1;

credit_delay   = 2;
routing_delay  = 0;
vc_alloc_delay = 1;
sw_alloc_delay = 1;
st_final_delay = 1;

input_speedup     = 1;
output_speedup    = 1;
internal_speedup  = 2.0;


warmup_periods = 3;
sim_count          = 1;

sample_period  = 10000;  


routing_function = dor;
num_vcs     = 2;

priority = none;
traffic       = uniform; 

injection_rate = 0.9;
packet_size = 1;
injection_rate_uses_flits=1;

topology = mesh;

k  = 8;
n  = 2;

fer = 3;
ecc = link;
correctable = 0;

watch_out=-;
watch_file = watch.txt;

ecc = packet;

stats_out = examples/ecc_mesh88_config_0_0.900_packet_3.m;

END Configuration File: examples/ecc_mesh88_config_0_0.900_packet_3
Additional hops: 6
Adding flit 18 as NACK at time 20
Additional hops: 12
Adding flit 39 as NACK at time 22
Additional hops: 15
Adding flit 923 as NACK at time 28
Reenqueueing errored packet 18 at time 33
Reenqueueing errored packet 923 at time 35
Reenqueueing errored packet 39 at time 35
Additional hops: 19
Adding flit 779 as NACK at time 35
Reenqueueing errored packet 779 at time 44
Additional hops: 30
Adding flit 79 as NACK at time 44
Additional hops: 37
Adding flit 1061 as NACK at time 47
Additional hops: 41
Adding flit 2203 as NACK at time 55
Additional hops: 46
Adding flit 1824 as NACK at time 56
Additional hops: 49
Adding flit 2655 as NACK at time 58
Reenqueueing errored packet 1061 at time 62
Reenqueueing errored packet 2203 at time 64
Reenqueueing errored packet 2655 at time 65
Reenqueueing errored packet 1824 at time 67
Reenqueueing errored packet 79 at time 67
Additional hops: 60
Adding flit 530 as NACK at time 70
Additional hops: 63
Adding flit 3390 as NACK at time 72
Additional hops: 64
Adding flit 4033 as NACK at time 75
Reenqueueing errored packet 4033 at time 78
Reenqueueing errored packet 3390 at time 79
Reenqueueing errored packet 530 at time 93
Additional hops: 67
Adding flit 4507 as NACK at time 101
Additional hops: 73
Adding flit 3080 as NACK at time 102
Additional hops: 85
Adding flit 909 as NACK at time 107
Reenqueueing errored packet 4507 at time 108
Additional hops: 91
Adding flit 4622 as NACK at time 111
Additional hops: 100
Adding flit 2261 as NACK at time 114
Reenqueueing errored packet 3080 at time 115
Additional hops: 106
Adding flit 4917 as NACK at time 116
Additional hops: 113
Adding flit 3053 as NACK at time 116
Additional hops: 120
Adding flit 2023 as NACK at time 122
Reenqueueing errored packet 4622 at time 124
Additional hops: 123
Adding flit 4759 as NACK at time 127
Reenqueueing errored packet 4917 at time 129
Reenqueueing errored packet 3053 at time 131
Reenqueueing errored packet 909 at time 132
Reenqueueing errored packet 2261 at time 133
Reenqueueing errored packet 4759 at time 134
Reenqueueing errored packet 2023 at time 137
Additional hops: 126
Adding flit 5699 as NACK at time 148
Additional hops: 127
Adding flit 8242 as NACK at time 148
Additional hops: 136
Adding flit 3948 as NACK at time 150
Reenqueueing errored packet 8242 at time 151
Additional hops: 142
Adding flit 3756 as NACK at time 151
Reenqueueing errored packet 5699 at time 155
Additional hops: 152
Adding flit 2417 as NACK at time 159
Reenqueueing errored packet 3756 at time 164
Additional hops: 161
Adding flit 2145 as NACK at time 164
Additional hops: 170
Adding flit 1740 as NACK at time 168
Reenqueueing errored packet 3948 at time 169
Additional hops: 178
Adding flit 3616 as NACK at time 172
Additional hops: 182
Adding flit 4380 as NACK at time 172
Additional hops: 191
Adding flit 4204 as NACK at time 177
Reenqueueing errored packet 2417 at time 180
Reenqueueing errored packet 4380 at time 181
Reenqueueing errored packet 2145 at time 183
Additional hops: 197
Adding flit 3662 as NACK at time 184
Reenqueueing errored packet 1740 at time 187
Reenqueueing errored packet 3616 at time 189
Additional hops: 205
Adding flit 7345 as NACK at time 192
Additional hops: 209
Adding flit 8323 as NACK at time 192
Additional hops: 214
Adding flit 7175 as NACK at time 193
Additional hops: 223
Adding flit 3572 as NACK at time 195
Reenqueueing errored packet 4204 at time 196
Reenqueueing errored packet 3662 at time 197
Reenqueueing errored packet 8323 at time 201
Reenqueueing errored packet 7175 at time 204
Additional hops: 229
Adding flit 6320 as NACK at time 205
Reenqueueing errored packet 7345 at time 209
Additional hops: 236
Adding flit 7271 as NACK at time 213
Reenqueueing errored packet 3572 at time 214
Additional hops: 239
Adding flit 7270 as NACK at time 215
Reenqueueing errored packet 6320 at time 218
Additional hops: 249
Adding flit 4025 as NACK at time 220
Reenqueueing errored packet 7270 at time 222
Additional hops: 254
Adding flit 6650 as NACK at time 225
Additional hops: 262
Adding flit 4455 as NACK at time 227
Reenqueueing errored packet 7271 at time 228
Additional hops: 273
Adding flit 3632 as NACK at time 228
Additional hops: 281
Adding flit 4215 as NACK at time 229
Reenqueueing errored packet 6650 at time 236
Additional hops: 283
Adding flit 13125 as NACK at time 236
Additional hops: 288
Adding flit 9323 as NACK at time 240
Reenqueueing errored packet 13125 at time 241
Reenqueueing errored packet 4025 at time 241
Reenqueueing errored packet 4455 at time 244
Reenqueueing errored packet 4215 at time 246
Additional hops: 293
Adding flit 9033 as NACK at time 248
Reenqueueing errored packet 9323 at time 251
Reenqueueing errored packet 3632 at time 251
Additional hops: 299
Adding flit 10083 as NACK at time 255
Additional hops: 307
Adding flit 5234 as NACK at time 255
Additional hops: 314
Adding flit 5399 as NACK at time 256
Additional hops: 321
Adding flit 9379 as NACK at time 258
Reenqueueing errored packet 9033 at time 259
Additional hops: 325
Adding flit 7738 as NACK at time 260
Additional hops: 332
Adding flit 11294 as NACK at time 265
Reenqueueing errored packet 10083 at time 268
Reenqueueing errored packet 7738 at time 269
Reenqueueing errored packet 5399 at time 271
Reenqueueing errored packet 5234 at time 272
Reenqueueing errored packet 9379 at time 273
Additional hops: 339
Adding flit 10578 as NACK at time 273
Additional hops: 344
Adding flit 6544 as NACK at time 278
Additional hops: 350
Adding flit 6965 as NACK at time 279
Reenqueueing errored packet 11294 at time 280
Additional hops: 356
Adding flit 9680 as NACK at time 284
Additional hops: 360
Adding flit 15204 as NACK at time 287
Reenqueueing errored packet 10578 at time 288
Reenqueueing errored packet 6544 at time 289
Reenqueueing errored packet 6965 at time 292
Reenqueueing errored packet 15204 at time 296
Reenqueueing errored packet 9680 at time 297
Additional hops: 364
Adding flit 15958 as NACK at time 300
Additional hops: 369
Adding flit 10661 as NACK at time 307
Additional hops: 373
Adding flit 13353 as NACK at time 307
Reenqueueing errored packet 15958 at time 309
Additional hops: 378
Adding flit 10791 as NACK at time 310
Additional hops: 382
Adding flit 15956 as NACK at time 311
Additional hops: 389
Adding flit 6478 as NACK at time 312
Additional hops: 393
Adding flit 12715 as NACK at time 315
Reenqueueing errored packet 13353 at time 316
Reenqueueing errored packet 10661 at time 318
Reenqueueing errored packet 15956 at time 320
Reenqueueing errored packet 10791 at time 321
Reenqueueing errored packet 12715 at time 324
Additional hops: 396
Adding flit 13396 as NACK at time 326
Reenqueueing errored packet 6478 at time 327
Additional hops: 403
Adding flit 7255 as NACK at time 328
Additional hops: 408
Adding flit 10182 as NACK at time 332
Reenqueueing errored packet 13396 at time 333
Additional hops: 416
Adding flit 6435 as NACK at time 342
Reenqueueing errored packet 10182 at time 343
Reenqueueing errored packet 7255 at time 343
Additional hops: 426
Adding flit 6414 as NACK at time 344
Additional hops: 434
Adding flit 8937 as NACK at time 353
Reenqueueing errored packet 6435 at time 359
Additional hops: 437
Adding flit 19912 as NACK at time 361
Reenqueueing errored packet 6414 at time 365
Additional hops: 441
Adding flit 19131 as NACK at time 366
Reenqueueing errored packet 19912 at time 368
Reenqueueing errored packet 8937 at time 370
Additional hops: 451
Adding flit 5726 as NACK at time 374
Reenqueueing errored packet 19131 at time 375
Additional hops: 459
Adding flit 7704 as NACK at time 375
Additional hops: 467
Adding flit 12371 as NACK at time 383
Additional hops: 471
Adding flit 16376 as NACK at time 390
Additional hops: 476
Adding flit 15640 as NACK at time 391
Reenqueueing errored packet 7704 at time 392
Additional hops: 481
Adding flit 14784 as NACK at time 392
Additional hops: 488
Adding flit 8920 as NACK at time 394
Reenqueueing errored packet 5726 at time 395
Additional hops: 491
Adding flit 16753 as NACK at time 396
Reenqueueing errored packet 16376 at time 399
Reenqueueing errored packet 12371 at time 400
Reenqueueing errored packet 15640 at time 402
Reenqueueing errored packet 16753 at time 403
Reenqueueing errored packet 14784 at time 403
Additional hops: 495
Adding flit 13416 as NACK at time 404
Additional hops: 504
Adding flit 11652 as NACK at time 404
Additional hops: 512
Adding flit 10305 as NACK at time 407
Additional hops: 516
Adding flit 10633 as NACK at time 408
Reenqueueing errored packet 8920 at time 409
Reenqueueing errored packet 13416 at time 413
Additional hops: 523
Adding flit 9610 as NACK at time 413
Additional hops: 525
Adding flit 23215 as NACK at time 413
Additional hops: 530
Adding flit 14629 as NACK at time 416
Reenqueueing errored packet 10633 at time 417
Reenqueueing errored packet 23215 at time 418
Additional hops: 531
Adding flit 23894 as NACK at time 422
Reenqueueing errored packet 11652 at time 423
Additional hops: 538
Adding flit 16302 as NACK at time 423
Reenqueueing errored packet 10305 at time 424
Reenqueueing errored packet 23894 at time 425
Reenqueueing errored packet 14629 at time 427
Reenqueueing errored packet 9610 at time 428
Additional hops: 545
Adding flit 16927 as NACK at time 428
Additional hops: 552
Adding flit 12224 as NACK at time 432
Additional hops: 558
Adding flit 13140 as NACK at time 437
Reenqueueing errored packet 16302 at time 438
Additional hops: 567
Adding flit 8993 as NACK at time 439
Reenqueueing errored packet 16927 at time 443
Additional hops: 577
Adding flit 8529 as NACK at time 443
Additional hops: 584
Adding flit 15324 as NACK at time 444
Additional hops: 594
Adding flit 9503 as NACK at time 445
Additional hops: 598
Adding flit 14959 as NACK at time 446
Reenqueueing errored packet 12224 at time 447
Additional hops: 602
Adding flit 14111 as NACK at time 447
Additional hops: 606
Adding flit 20193 as NACK at time 449
Reenqueueing errored packet 13140 at time 450
Additional hops: 618
Adding flit 6566 as NACK at time 450
Additional hops: 631
Adding flit 5526 as NACK at time 450
Additional hops: 638
Adding flit 8785 as NACK at time 450
Additional hops: 646
Adding flit 10637 as NACK at time 451
Reenqueueing errored packet 14959 at time 455
Reenqueueing errored packet 14111 at time 456
Reenqueueing errored packet 20193 at time 458
Reenqueueing errored packet 8993 at time 458
Reenqueueing errored packet 15324 at time 459
Reenqueueing errored packet 8529 at time 464
Reenqueueing errored packet 8785 at time 465
Reenqueueing errored packet 9503 at time 466
Reenqueueing errored packet 10637 at time 468
Additional hops: 654
Adding flit 18814 as NACK at time 474
Reenqueueing errored packet 6566 at time 475
Reenqueueing errored packet 5526 at time 477
Additional hops: 662
Adding flit 15985 as NACK at time 479
Additional hops: 666
Adding flit 26834 as NACK at time 483
Additional hops: 676
Adding flit 13723 as NACK at time 484
Additional hops: 684
Adding flit 20730 as NACK at time 484
Reenqueueing errored packet 18814 at time 491
Reenqueueing errored packet 26834 at time 492
Additional hops: 689
Adding flit 20575 as NACK at time 493
Additional hops: 694
Adding flit 23934 as NACK at time 495
Reenqueueing errored packet 15985 at time 496
Additional hops: 702
Adding flit 15447 as NACK at time 496
Additional hops: 711
Adding flit 15168 as NACK at time 500
Reenqueueing errored packet 20730 at time 501
Reenqueueing errored packet 20575 at time 504
Reenqueueing errored packet 13723 at time 505
Reenqueueing errored packet 23934 at time 506
Additional hops: 714
Adding flit 28302 as NACK at time 507
Reenqueueing errored packet 15447 at time 513
Reenqueueing errored packet 28302 at time 514
Additional hops: 724
Adding flit 10404 as NACK at time 517
Additional hops: 729
Adding flit 19964 as NACK at time 517
Reenqueueing errored packet 15168 at time 519
Additional hops: 735
Adding flit 15195 as NACK at time 521
Additional hops: 736
Adding flit 29845 as NACK at time 525
Reenqueueing errored packet 29845 at time 528
Reenqueueing errored packet 19964 at time 528
Additional hops: 747
Adding flit 10160 as NACK at time 530
Additional hops: 753
Adding flit 22804 as NACK at time 532
Reenqueueing errored packet 15195 at time 534
Reenqueueing errored packet 10404 at time 538
Reenqueueing errored packet 22804 at time 545
Additional hops: 756
Adding flit 30366 as NACK at time 546
Reenqueueing errored packet 30366 at time 553
Reenqueueing errored packet 10160 at time 553
Additional hops: 760
Adding flit 23267 as NACK at time 558
Additional hops: 768
Adding flit 12139 as NACK at time 566
Reenqueueing errored packet 23267 at time 567
Additional hops: 775
Adding flit 14406 as NACK at time 575
Additional hops: 782
Adding flit 20424 as NACK at time 576
Reenqueueing errored packet 12139 at time 583
Reenqueueing errored packet 14406 at time 590
Additional hops: 789
Adding flit 14385 as NACK at time 590
Reenqueueing errored packet 20424 at time 591
Additional hops: 794
Adding flit 23742 as NACK at time 593
Additional hops: 798
Adding flit 23297 as NACK at time 598
Additional hops: 809
Adding flit 9070 as NACK at time 601
Reenqueueing errored packet 23742 at time 604
Reenqueueing errored packet 14385 at time 605
Reenqueueing errored packet 23297 at time 607
Additional hops: 816
Adding flit 18644 as NACK at time 609
Additional hops: 827
Adding flit 9765 as NACK at time 616
Additional hops: 831
Adding flit 23944 as NACK at time 618
Additional hops: 836
Adding flit 17759 as NACK at time 622
Reenqueueing errored packet 18644 at time 624
Reenqueueing errored packet 9070 at time 624
Reenqueueing errored packet 23944 at time 627
Additional hops: 842
Adding flit 22733 as NACK at time 629
Reenqueueing errored packet 17759 at time 633
Additional hops: 848
Adding flit 24777 as NACK at time 637
Reenqueueing errored packet 9765 at time 639
Reenqueueing errored packet 22733 at time 642
Additional hops: 850
Adding flit 36413 as NACK at time 642
Additional hops: 855
Adding flit 20934 as NACK at time 644
Additional hops: 859
Adding flit 33261 as NACK at time 645
Reenqueueing errored packet 36413 at time 647
Reenqueueing errored packet 24777 at time 650
Reenqueueing errored packet 33261 at time 654
Reenqueueing errored packet 20934 at time 655
Additional hops: 865
Adding flit 24222 as NACK at time 658
Additional hops: 873
Adding flit 18466 as NACK at time 661
Additional hops: 879
Adding flit 25207 as NACK at time 662
Additional hops: 884
Adding flit 24624 as NACK at time 664
Additional hops: 897
Adding flit 11756 as NACK at time 667
Additional hops: 908
Adding flit 12864 as NACK at time 668
Reenqueueing errored packet 24222 at time 671
Reenqueueing errored packet 24624 at time 675
Reenqueueing errored packet 25207 at time 675
Reenqueueing errored packet 18466 at time 678
Additional hops: 922
Adding flit 16302 as NACK at time 680
Additional hops: 929
Adding flit 15376 as NACK at time 682
Additional hops: 934
Adding flit 28834 as NACK at time 682
Additional hops: 942
Adding flit 15311 as NACK at time 687
Reenqueueing errored packet 12864 at time 691
Reenqueueing errored packet 28834 at time 693
Reenqueueing errored packet 11756 at time 694
Reenqueueing errored packet 15376 at time 697
Additional hops: 953
Adding flit 16926 as NACK at time 697
Additional hops: 964
Adding flit 18655 as NACK at time 702
Reenqueueing errored packet 15311 at time 704
Additional hops: 967
Adding flit 35828 as NACK at time 705
Additional hops: 976
Adding flit 16569 as NACK at time 705
Reenqueueing errored packet 16302 at time 709
Additional hops: 977
Adding flit 40522 as NACK at time 711
Reenqueueing errored packet 35828 at time 712
Reenqueueing errored packet 40522 at time 714
Additional hops: 987
Adding flit 12698 as NACK at time 715
Additional hops: 999
Adding flit 9637 as NACK at time 718
Reenqueueing errored packet 16926 at time 720
Reenqueueing errored packet 16569 at time 724
Reenqueueing errored packet 18655 at time 725
Additional hops: 1003
Adding flit 39328 as NACK at time 727
Additional hops: 1009
Adding flit 29699 as NACK at time 728
Additional hops: 1011
Adding flit 41460 as NACK at time 730
Additional hops: 1021
Adding flit 15586 as NACK at time 731
Reenqueueing errored packet 41460 at time 735
Additional hops: 1027
Adding flit 26303 as NACK at time 735
Reenqueueing errored packet 39328 at time 736
Reenqueueing errored packet 12698 at time 736
Reenqueueing errored packet 29699 at time 741
Reenqueueing errored packet 9637 at time 743
Reenqueueing errored packet 26303 at time 748
Reenqueueing errored packet 15586 at time 752
Additional hops: 1035
Adding flit 34109 as NACK at time 753
Additional hops: 1044
Adding flit 24889 as NACK at time 753
Additional hops: 1053
Adding flit 19555 as NACK at time 757
Additional hops: 1055
Adding flit 43331 as NACK at time 764
Additional hops: 1060
Adding flit 23372 as NACK at time 764
Additional hops: 1068
Adding flit 21294 as NACK at time 767
Additional hops: 1070
Adding flit 37663 as NACK at time 768
Reenqueueing errored packet 43331 at time 769
Reenqueueing errored packet 34109 at time 770
Additional hops: 1073
Adding flit 43584 as NACK at time 770
Reenqueueing errored packet 24889 at time 772
Reenqueueing errored packet 37663 at time 773
Reenqueueing errored packet 23372 at time 775
Reenqueueing errored packet 19555 at time 776
Additional hops: 1082
Adding flit 12657 as NACK at time 776
Reenqueueing errored packet 43584 at time 777
Additional hops: 1088
Adding flit 35881 as NACK at time 777
Reenqueueing errored packet 21294 at time 784
Reenqueueing errored packet 35881 at time 790
Additional hops: 1091
Adding flit 32470 as NACK at time 791
Additional hops: 1098
Adding flit 40604 as NACK at time 794
Reenqueueing errored packet 12657 at time 795
Reenqueueing errored packet 32470 at time 798
Additional hops: 1106
Adding flit 15970 as NACK at time 798
Additional hops: 1115
Adding flit 25449 as NACK at time 799
Additional hops: 1122
Adding flit 16535 as NACK at time 802
Additional hops: 1131
Adding flit 13733 as NACK at time 803
Reenqueueing errored packet 40604 at time 809
Reenqueueing errored packet 15970 at time 815
Reenqueueing errored packet 16535 at time 817
Reenqueueing errored packet 25449 at time 818
Reenqueueing errored packet 13733 at time 822
Additional hops: 1140
Adding flit 32546 as NACK at time 823
Additional hops: 1147
Adding flit 41808 as NACK at time 831
Additional hops: 1152
Adding flit 33300 as NACK at time 832
Additional hops: 1156
Adding flit 36073 as NACK at time 838
Additional hops: 1163
Adding flit 31985 as NACK at time 840
Reenqueueing errored packet 32546 at time 842
Reenqueueing errored packet 33300 at time 843
Reenqueueing errored packet 41808 at time 846
Reenqueueing errored packet 36073 at time 847
Additional hops: 1166
Adding flit 35163 as NACK at time 849
Additional hops: 1172
Adding flit 33854 as NACK at time 852
Additional hops: 1180
Adding flit 31960 as NACK at time 852
Reenqueueing errored packet 31985 at time 855
Additional hops: 1188
Adding flit 31952 as NACK at time 855
Reenqueueing errored packet 35163 at time 856
Additional hops: 1191
Adding flit 48755 as NACK at time 860
Reenqueueing errored packet 33854 at time 865
Reenqueueing errored packet 48755 at time 867
Reenqueueing errored packet 31960 at time 869
Additional hops: 1200
Adding flit 19424 as NACK at time 870
Reenqueueing errored packet 31952 at time 872
Additional hops: 1204
Adding flit 43360 as NACK at time 878
Additional hops: 1210
Adding flit 35456 as NACK at time 880
Additional hops: 1215
Adding flit 30215 as NACK at time 882
Reenqueueing errored packet 43360 at time 887
Reenqueueing errored packet 19424 at time 889
Additional hops: 1220
Adding flit 26930 as NACK at time 890
Additional hops: 1229
Adding flit 26629 as NACK at time 890
Reenqueueing errored packet 30215 at time 893
Reenqueueing errored packet 35456 at time 893
Additional hops: 1235
Adding flit 34347 as NACK at time 899
Reenqueueing errored packet 26930 at time 901
Additional hops: 1244
Adding flit 24647 as NACK at time 901
Reenqueueing errored packet 26629 at time 909
Reenqueueing errored packet 34347 at time 912
Additional hops: 1251
Adding flit 33589 as NACK at time 913
Additional hops: 1259
Adding flit 32502 as NACK at time 918
Reenqueueing errored packet 24647 at time 920
Additional hops: 1269
Adding flit 32530 as NACK at time 924
Reenqueueing errored packet 33589 at time 928
Additional hops: 1270
Adding flit 53083 as NACK at time 930
Additional hops: 1278
Adding flit 21118 as NACK at time 930
Reenqueueing errored packet 53083 at time 933
Reenqueueing errored packet 32502 at time 935
Additional hops: 1283
Adding flit 35152 as NACK at time 943
Additional hops: 1289
Adding flit 35055 as NACK at time 943
Additional hops: 1293
Adding flit 53024 as NACK at time 943
Reenqueueing errored packet 32530 at time 945
Reenqueueing errored packet 21118 at time 947
Additional hops: 1297
Adding flit 53472 as NACK at time 949
Additional hops: 1299
Adding flit 49035 as NACK at time 950
Reenqueueing errored packet 53024 at time 952
Reenqueueing errored packet 35152 at time 954
Reenqueueing errored packet 49035 at time 955
Reenqueueing errored packet 35055 at time 956
Reenqueueing errored packet 53472 at time 958
Additional hops: 1303
Adding flit 40149 as NACK at time 960
Reenqueueing errored packet 40149 at time 969
Additional hops: 1310
Adding flit 38739 as NACK at time 971
Additional hops: 1318
Adding flit 19144 as NACK at time 971
Additional hops: 1324
Adding flit 47366 as NACK at time 972
Additional hops: 1335
Adding flit 14725 as NACK at time 977
Reenqueueing errored packet 47366 at time 985
Reenqueueing errored packet 38739 at time 986
Additional hops: 1344
Adding flit 21491 as NACK at time 987
Reenqueueing errored packet 19144 at time 988
Additional hops: 1347
Adding flit 45019 as NACK at time 992
Additional hops: 1354
Adding flit 38279 as NACK at time 993
Reenqueueing errored packet 45019 at time 999
Reenqueueing errored packet 14725 at time 1000
Reenqueueing errored packet 21491 at time 1006
Additional hops: 1359
Adding flit 46541 as NACK at time 1007
Reenqueueing errored packet 38279 at time 1008
Additional hops: 1362
Adding flit 57193 as NACK at time 1009
Additional hops: 1371
Adding flit 25369 as NACK at time 1012
Reenqueueing errored packet 57193 at time 1016
Additional hops: 1376
Adding flit 51934 as NACK at time 1016
Additional hops: 1386
Adding flit 19309 as NACK at time 1017
Reenqueueing errored packet 46541 at time 1018
Additional hops: 1398
Adding flit 16933 as NACK at time 1020
Additional hops: 1402
Adding flit 58076 as NACK at time 1025
Reenqueueing errored packet 51934 at time 1027
Reenqueueing errored packet 25369 at time 1031
Additional hops: 1415
Adding flit 13434 as NACK at time 1031
Reenqueueing errored packet 58076 at time 1034
Additional hops: 1419
Adding flit 44851 as NACK at time 1035
Reenqueueing errored packet 19309 at time 1038
Additional hops: 1424
Adding flit 37387 as NACK at time 1042
Additional hops: 1434
Adding flit 28984 as NACK at time 1042
Reenqueueing errored packet 44851 at time 1044
Reenqueueing errored packet 16933 at time 1045
Additional hops: 1443
Adding flit 24680 as NACK at time 1052
Reenqueueing errored packet 37387 at time 1053
Additional hops: 1453
Adding flit 26188 as NACK at time 1054
Reenqueueing errored packet 13434 at time 1058
Additional hops: 1461
Adding flit 41716 as NACK at time 1059
Reenqueueing errored packet 28984 at time 1063
Additional hops: 1470
Adding flit 30527 as NACK at time 1068
Reenqueueing errored packet 24680 at time 1071
Additional hops: 1477
Adding flit 31388 as NACK at time 1071
Reenqueueing errored packet 26188 at time 1075
Reenqueueing errored packet 41716 at time 1076
Additional hops: 1482
Adding flit 35436 as NACK at time 1077
Additional hops: 1486
Adding flit 43458 as NACK at time 1080
Additional hops: 1489
Adding flit 56391 as NACK at time 1080
Additional hops: 1495
Adding flit 30431 as NACK at time 1083
Reenqueueing errored packet 31388 at time 1086
Reenqueueing errored packet 56391 at time 1087
Reenqueueing errored packet 30527 at time 1087
Additional hops: 1500
Adding flit 50214 as NACK at time 1087
Reenqueueing errored packet 35436 at time 1088
Reenqueueing errored packet 43458 at time 1089
Additional hops: 1502
Adding flit 62364 as NACK at time 1094
Reenqueueing errored packet 30431 at time 1096
Additional hops: 1506
Adding flit 61345 as NACK at time 1097
Reenqueueing errored packet 50214 at time 1098
Reenqueueing errored packet 62364 at time 1099
Additional hops: 1509
Adding flit 62360 as NACK at time 1104
Reenqueueing errored packet 61345 at time 1106
Reenqueueing errored packet 62360 at time 1111
Additional hops: 1518
Adding flit 42757 as NACK at time 1112
Additional hops: 1527
Adding flit 17416 as NACK at time 1113
Additional hops: 1533
Adding flit 26201 as NACK at time 1119
Additional hops: 1541
Adding flit 31711 as NACK at time 1120
Additional hops: 1547
Adding flit 32548 as NACK at time 1129
Reenqueueing errored packet 42757 at time 1131
Additional hops: 1555
Adding flit 26671 as NACK at time 1131
Reenqueueing errored packet 26201 at time 1132
Reenqueueing errored packet 17416 at time 1132
Reenqueueing errored packet 31711 at time 1137
Reenqueueing errored packet 32548 at time 1142
Reenqueueing errored packet 26671 at time 1148
Additional hops: 1561
Adding flit 33249 as NACK at time 1153
Additional hops: 1565
Adding flit 36628 as NACK at time 1157
Additional hops: 1577
Adding flit 20199 as NACK at time 1159
Reenqueueing errored packet 36628 at time 1166
Reenqueueing errored packet 33249 at time 1166
Additional hops: 1586
Adding flit 24831 as NACK at time 1173
Reenqueueing errored packet 20199 at time 1184
Additional hops: 1593
Adding flit 32341 as NACK at time 1185
Additional hops: 1599
Adding flit 26684 as NACK at time 1186
Reenqueueing errored packet 24831 at time 1192
Additional hops: 1605
Adding flit 57495 as NACK at time 1195
Additional hops: 1609
Adding flit 65701 as NACK at time 1198
Reenqueueing errored packet 26684 at time 1199
Reenqueueing errored packet 32341 at time 1200
Reenqueueing errored packet 65701 at time 1207
Reenqueueing errored packet 57495 at time 1208
Additional hops: 1619
Adding flit 29930 as NACK at time 1209
Additional hops: 1622
Adding flit 35643 as NACK at time 1228
Reenqueueing errored packet 29930 at time 1230
Additional hops: 1627
Adding flit 63303 as NACK at time 1230
Reenqueueing errored packet 35643 at time 1235
Additional hops: 1637
Adding flit 21963 as NACK at time 1237
Additional hops: 1642
Adding flit 38244 as NACK at time 1237
Reenqueueing errored packet 63303 at time 1241
Additional hops: 1651
Adding flit 40857 as NACK at time 1242
Additional hops: 1659
Adding flit 28003 as NACK at time 1245
Reenqueueing errored packet 38244 at time 1248
Additional hops: 1669
Adding flit 44509 as NACK at time 1255
Reenqueueing errored packet 21963 at time 1258
Reenqueueing errored packet 40857 at time 1261
Reenqueueing errored packet 28003 at time 1262
Additional hops: 1676
Adding flit 26430 as NACK at time 1263
Reenqueueing errored packet 44509 at time 1276
Additional hops: 1683
Adding flit 32755 as NACK at time 1276
Reenqueueing errored packet 26430 at time 1278
Additional hops: 1689
Adding flit 55847 as NACK at time 1278
Additional hops: 1696
Adding flit 28774 as NACK at time 1285
Additional hops: 1700
Adding flit 66881 as NACK at time 1287
Reenqueueing errored packet 55847 at time 1291
Reenqueueing errored packet 32755 at time 1291
Additional hops: 1706
Adding flit 32595 as NACK at time 1292
Reenqueueing errored packet 66881 at time 1296
Additional hops: 1711
Adding flit 55126 as NACK at time 1296
Additional hops: 1719
Adding flit 26617 as NACK at time 1299
Additional hops: 1728
Adding flit 46656 as NACK at time 1299
Reenqueueing errored packet 28774 at time 1300
Additional hops: 1735
Adding flit 26732 as NACK at time 1300
Additional hops: 1739
Adding flit 72251 as NACK at time 1301
Reenqueueing errored packet 32595 at time 1305
Reenqueueing errored packet 55126 at time 1307
Reenqueueing errored packet 72251 at time 1310
Additional hops: 1750
Adding flit 18712 as NACK at time 1311
Reenqueueing errored packet 26732 at time 1315
Additional hops: 1759
Adding flit 28227 as NACK at time 1315
Additional hops: 1767
Adding flit 44676 as NACK at time 1315
Reenqueueing errored packet 26617 at time 1316
Additional hops: 1773
Adding flit 39725 as NACK at time 1317
Reenqueueing errored packet 46656 at time 1318
Additional hops: 1777
Adding flit 73980 as NACK at time 1318
Additional hops: 1782
Adding flit 54858 as NACK at time 1324
Additional hops: 1793
Adding flit 20483 as NACK at time 1325
Additional hops: 1801
Adding flit 34156 as NACK at time 1326
Reenqueueing errored packet 73980 at time 1327
Additional hops: 1808
Adding flit 41386 as NACK at time 1327
Reenqueueing errored packet 39725 at time 1330
Reenqueueing errored packet 44676 at time 1332
Additional hops: 1816
Adding flit 26774 as NACK at time 1333
Reenqueueing errored packet 28227 at time 1334
Additional hops: 1822
Adding flit 41197 as NACK at time 1334
Reenqueueing errored packet 54858 at time 1335
Additional hops: 1826
Adding flit 69075 as NACK at time 1338
Additional hops: 1833
Adding flit 41671 as NACK at time 1340
Reenqueueing errored packet 41386 at time 1342
Additional hops: 1840
Adding flit 30026 as NACK at time 1342
Reenqueueing errored packet 34156 at time 1343
Additional hops: 1849
Adding flit 37051 as NACK at time 1344
Additional hops: 1854
Adding flit 53427 as NACK at time 1344
Reenqueueing errored packet 69075 at time 1347
Reenqueueing errored packet 41197 at time 1347
Reenqueueing errored packet 20483 at time 1348
Reenqueueing errored packet 26774 at time 1350
Additional hops: 1863
Adding flit 57177 as NACK at time 1350
Reenqueueing errored packet 53427 at time 1355
Reenqueueing errored packet 41671 at time 1355
Reenqueueing errored packet 30026 at time 1357
Additional hops: 1876
Adding flit 22438 as NACK at time 1357
Additional hops: 1884
Adding flit 49360 as NACK at time 1359
Reenqueueing errored packet 37051 at time 1363
Additional hops: 1886
Adding flit 78014 as NACK at time 1366
Reenqueueing errored packet 57177 at time 1369
Reenqueueing errored packet 78014 at time 1371
Additional hops: 1897
Adding flit 41093 as NACK at time 1373
Reenqueueing errored packet 49360 at time 1376
Additional hops: 1900
Adding flit 45382 as NACK at time 1376
Additional hops: 1906
Adding flit 28536 as NACK at time 1377
Additional hops: 1913
Adding flit 25100 as NACK at time 1380
Reenqueueing errored packet 45382 at time 1383
Additional hops: 1919
Adding flit 58173 as NACK at time 1383
Reenqueueing errored packet 22438 at time 1384
Reenqueueing errored packet 28536 at time 1390
Additional hops: 1924
Adding flit 59777 as NACK at time 1390
Additional hops: 1936
Adding flit 19697 as NACK at time 1392
Reenqueueing errored packet 25100 at time 1395
Reenqueueing errored packet 58173 at time 1396
Reenqueueing errored packet 41093 at time 1396
Additional hops: 1943
Adding flit 53533 as NACK at time 1399
Additional hops: 1948
Adding flit 62022 as NACK at time 1399
Reenqueueing errored packet 59777 at time 1401
Additional hops: 1950
Adding flit 80120 as NACK at time 1401
Reenqueueing errored packet 80120 at time 1406
Additional hops: 1953
Adding flit 79434 as NACK at time 1407
Reenqueueing errored packet 62022 at time 1410
Reenqueueing errored packet 79434 at time 1414
Reenqueueing errored packet 53533 at time 1414
Additional hops: 1964
Adding flit 20555 as NACK at time 1414
Reenqueueing errored packet 19697 at time 1417
Additional hops: 1967
Adding flit 79966 as NACK at time 1419
Additional hops: 1975
Adding flit 49213 as NACK at time 1421
Additional hops: 1978
Adding flit 75176 as NACK at time 1421
Additional hops: 1983
Adding flit 68850 as NACK at time 1423
Reenqueueing errored packet 79966 at time 1426
Reenqueueing errored packet 75176 at time 1428
Reenqueueing errored packet 68850 at time 1434
Reenqueueing errored packet 20555 at time 1437
Additional hops: 1989
Adding flit 63687 as NACK at time 1437
Reenqueueing errored packet 49213 at time 1438
Additional hops: 1995
Adding flit 73433 as NACK at time 1440
Additional hops: 2003
Adding flit 54764 as NACK at time 1440
Additional hops: 2009
Adding flit 32798 as NACK at time 1442
Additional hops: 2015
Adding flit 56894 as NACK at time 1443
Additional hops: 2018
Adding flit 81743 as NACK at time 1446
Reenqueueing errored packet 63687 at time 1450
Reenqueueing errored packet 81743 at time 1453
Reenqueueing errored packet 73433 at time 1453
Reenqueueing errored packet 32798 at time 1455
Additional hops: 2023
Adding flit 57175 as NACK at time 1455
Reenqueueing errored packet 56894 at time 1456
Reenqueueing errored packet 54764 at time 1457
Additional hops: 2029
Adding flit 78500 as NACK at time 1459
Reenqueueing errored packet 57175 at time 1466
Additional hops: 2039
Adding flit 21980 as NACK at time 1466
Additional hops: 2047
Adding flit 30803 as NACK at time 1468
Additional hops: 2048
Adding flit 84223 as NACK at time 1469
Reenqueueing errored packet 84223 at time 1472
Reenqueueing errored packet 78500 at time 1472
Additional hops: 2054
Adding flit 45704 as NACK at time 1474
Additional hops: 2063
Adding flit 37415 as NACK at time 1475
Additional hops: 2070
Adding flit 74757 as NACK at time 1478
Additional hops: 2074
Adding flit 60988 as NACK at time 1482
Reenqueueing errored packet 30803 at time 1485
Additional hops: 2083
Adding flit 39393 as NACK at time 1485
Reenqueueing errored packet 45704 at time 1487
Reenqueueing errored packet 21980 at time 1487
Additional hops: 2090
Adding flit 54795 as NACK at time 1490
Reenqueueing errored packet 60988 at time 1491
Additional hops: 2099
Adding flit 29715 as NACK at time 1492
Reenqueueing errored packet 74757 at time 1493
Reenqueueing errored packet 37415 at time 1494
Additional hops: 2106
Adding flit 44594 as NACK at time 1498
Additional hops: 2116
Adding flit 26152 as NACK at time 1498
Additional hops: 2123
Adding flit 61223 as NACK at time 1499
Reenqueueing errored packet 39393 at time 1504
Reenqueueing errored packet 54795 at time 1505
Additional hops: 2129
Adding flit 59435 as NACK at time 1508
Additional hops: 2137
Adding flit 33244 as NACK at time 1509
Reenqueueing errored packet 29715 at time 1511
Additional hops: 2144
Adding flit 36792 as NACK at time 1512
Reenqueueing errored packet 44594 at time 1513
Additional hops: 2153
Adding flit 30162 as NACK at time 1513
Reenqueueing errored packet 61223 at time 1514
Additional hops: 2161
Adding flit 42541 as NACK at time 1518
Reenqueueing errored packet 26152 at time 1519
Reenqueueing errored packet 59435 at time 1521
Additional hops: 2168
Adding flit 30024 as NACK at time 1525
Additional hops: 2173
Adding flit 73516 as NACK at time 1525
Reenqueueing errored packet 33244 at time 1526
Reenqueueing errored packet 36792 at time 1527
Additional hops: 2179
Adding flit 44935 as NACK at time 1528
Reenqueueing errored packet 30162 at time 1532
Additional hops: 2187
Adding flit 42899 as NACK at time 1533
Reenqueueing errored packet 42541 at time 1535
Reenqueueing errored packet 73516 at time 1536
Additional hops: 2190
Adding flit 63468 as NACK at time 1539
Additional hops: 2200
Adding flit 41674 as NACK at time 1539
Reenqueueing errored packet 30024 at time 1540
Additional hops: 2207
Adding flit 43350 as NACK at time 1540
Reenqueueing errored packet 44935 at time 1541
Additional hops: 2210
Adding flit 85395 as NACK at time 1543
Additional hops: 2217
Adding flit 39770 as NACK at time 1545
Reenqueueing errored packet 63468 at time 1546
Additional hops: 2222
Adding flit 57009 as NACK at time 1548
Reenqueueing errored packet 85395 at time 1550
Reenqueueing errored packet 42899 at time 1550
Additional hops: 2232
Adding flit 34892 as NACK at time 1551
Reenqueueing errored packet 43350 at time 1555
Reenqueueing errored packet 57009 at time 1559
Reenqueueing errored packet 39770 at time 1560
Reenqueueing errored packet 41674 at time 1560
Additional hops: 2240
Adding flit 56363 as NACK at time 1562
Reenqueueing errored packet 34892 at time 1572
Reenqueueing errored packet 56363 at time 1579
Additional hops: 2243
Adding flit 86882 as NACK at time 1581
Additional hops: 2251
Adding flit 46900 as NACK at time 1582
Additional hops: 2253
Adding flit 81147 as NACK at time 1583
Reenqueueing errored packet 81147 at time 1588
Reenqueueing errored packet 86882 at time 1588
Reenqueueing errored packet 46900 at time 1599
Additional hops: 2261
Adding flit 36979 as NACK at time 1604
Additional hops: 2266
Adding flit 49284 as NACK at time 1611
Additional hops: 2271
Adding flit 45406 as NACK at time 1614
Additional hops: 2282
Adding flit 28215 as NACK at time 1615
Reenqueueing errored packet 36979 at time 1621
Reenqueueing errored packet 49284 at time 1622
Additional hops: 2290
Adding flit 34412 as NACK at time 1624
Reenqueueing errored packet 45406 at time 1625
Additional hops: 2299
Adding flit 52191 as NACK at time 1629
Additional hops: 2311
Adding flit 33453 as NACK at time 1630
Additional hops: 2315
Adding flit 60822 as NACK at time 1632
Additional hops: 2318
Adding flit 93218 as NACK at time 1634
Additional hops: 2324
Adding flit 55806 as NACK at time 1634
Additional hops: 2331
Adding flit 38596 as NACK at time 1637
Additional hops: 2335
Adding flit 63412 as NACK at time 1637
Reenqueueing errored packet 28215 at time 1638
Additional hops: 2346
Adding flit 26016 as NACK at time 1638
Additional hops: 2354
Adding flit 50825 as NACK at time 1639
Reenqueueing errored packet 93218 at time 1641
Reenqueueing errored packet 60822 at time 1641
Reenqueueing errored packet 34412 at time 1641
Reenqueueing errored packet 63412 at time 1646
Reenqueueing errored packet 55806 at time 1647
Additional hops: 2363
Adding flit 38648 as NACK at time 1647
Reenqueueing errored packet 52191 at time 1648
Additional hops: 2366
Adding flit 86049 as NACK at time 1650
Reenqueueing errored packet 38596 at time 1652
Reenqueueing errored packet 33453 at time 1655
Reenqueueing errored packet 50825 at time 1656
Reenqueueing errored packet 86049 at time 1657
Additional hops: 2375
Adding flit 26959 as NACK at time 1657
Additional hops: 2383
Adding flit 37033 as NACK at time 1658
Reenqueueing errored packet 26016 at time 1661
Additional hops: 2386
Adding flit 84667 as NACK at time 1664
Reenqueueing errored packet 38648 at time 1666
Additional hops: 2397
Adding flit 25072 as NACK at time 1668
Reenqueueing errored packet 84667 at time 1671
Additional hops: 2403
Adding flit 72656 as NACK at time 1674
Reenqueueing errored packet 37033 at time 1675
Additional hops: 2410
Adding flit 36825 as NACK at time 1675
Reenqueueing errored packet 26959 at time 1676
Additional hops: 2416
Adding flit 33097 as NACK at time 1686
Reenqueueing errored packet 72656 at time 1687
Reenqueueing errored packet 36825 at time 1690
Reenqueueing errored packet 25072 at time 1691
Additional hops: 2421
Adding flit 83896 as NACK at time 1697
Reenqueueing errored packet 33097 at time 1699
Additional hops: 2434
Adding flit 25847 as NACK at time 1700
Additional hops: 2439
Adding flit 54581 as NACK at time 1701
Reenqueueing errored packet 83896 at time 1708
Additional hops: 2445
Adding flit 47619 as NACK at time 1711
Reenqueueing errored packet 54581 at time 1712
Additional hops: 2453
Adding flit 50793 as NACK at time 1722
Additional hops: 2460
Adding flit 83079 as NACK at time 1723
Reenqueueing errored packet 47619 at time 1724
Reenqueueing errored packet 25847 at time 1727
Additional hops: 2463
Adding flit 63833 as NACK at time 1728
Additional hops: 2468
Adding flit 55048 as NACK at time 1734
Reenqueueing errored packet 63833 at time 1735
Reenqueueing errored packet 83079 at time 1738
Additional hops: 2470
Adding flit 64137 as NACK at time 1738
Reenqueueing errored packet 50793 at time 1739
Reenqueueing errored packet 64137 at time 1743
Reenqueueing errored packet 55048 at time 1745
Additional hops: 2478
Adding flit 40228 as NACK at time 1758
Additional hops: 2486
Adding flit 47200 as NACK at time 1761
Additional hops: 2494
Adding flit 67365 as NACK at time 1762
Additional hops: 2502
Adding flit 50340 as NACK at time 1764
Additional hops: 2511
Adding flit 39641 as NACK at time 1769
Additional hops: 2518
Adding flit 48253 as NACK at time 1771
Reenqueueing errored packet 40228 at time 1775
Reenqueueing errored packet 47200 at time 1778
Additional hops: 2524
Adding flit 60143 as NACK at time 1778
Reenqueueing errored packet 67365 at time 1779
Reenqueueing errored packet 50340 at time 1781
Reenqueueing errored packet 48253 at time 1786
Additional hops: 2533
Adding flit 39748 as NACK at time 1787
Additional hops: 2539
Adding flit 60708 as NACK at time 1787
Reenqueueing errored packet 39641 at time 1788
Reenqueueing errored packet 60143 at time 1791
Additional hops: 2547
Adding flit 82603 as NACK at time 1791
Additional hops: 2556
Adding flit 53375 as NACK at time 1793
Reenqueueing errored packet 60708 at time 1800
Additional hops: 2562
Adding flit 72694 as NACK at time 1803
Reenqueueing errored packet 39748 at time 1806
Reenqueueing errored packet 82603 at time 1808
Reenqueueing errored packet 53375 at time 1812
Reenqueueing errored packet 72694 at time 1816
Additional hops: 2569
Adding flit 58736 as NACK at time 1818
Additional hops: 2572
Adding flit 85077 as NACK at time 1824
Additional hops: 2584
Adding flit 53899 as NACK at time 1830
Reenqueueing errored packet 85077 at time 1831
Reenqueueing errored packet 58736 at time 1833
Additional hops: 2592
Adding flit 53113 as NACK at time 1833
Additional hops: 2597
Adding flit 55263 as NACK at time 1833
Reenqueueing errored packet 55263 at time 1844
Additional hops: 2603
Adding flit 69894 as NACK at time 1844
Additional hops: 2610
Adding flit 41178 as NACK at time 1849
Reenqueueing errored packet 53113 at time 1850
Additional hops: 2622
Adding flit 26951 as NACK at time 1850
Reenqueueing errored packet 53899 at time 1855
Additional hops: 2636
Adding flit 25676 as NACK at time 1855
Additional hops: 2641
Adding flit 75797 as NACK at time 1855
Reenqueueing errored packet 69894 at time 1857
Additional hops: 2644
Adding flit 85398 as NACK at time 1858
Additional hops: 2648
Adding flit 89829 as NACK at time 1863
Reenqueueing errored packet 41178 at time 1864
Reenqueueing errored packet 85398 at time 1865
Reenqueueing errored packet 75797 at time 1866
Additional hops: 2653
Adding flit 77674 as NACK at time 1866
Reenqueueing errored packet 89829 at time 1872
Additional hops: 2661
Adding flit 47328 as NACK at time 1872
Additional hops: 2673
Adding flit 33271 as NACK at time 1873
Additional hops: 2681
Adding flit 35183 as NACK at time 1873
Reenqueueing errored packet 26951 at time 1875
Reenqueueing errored packet 77674 at time 1877
Additional hops: 2684
Adding flit 107506 as NACK at time 1880
Additional hops: 2692
Adding flit 57021 as NACK at time 1881
Reenqueueing errored packet 25676 at time 1884
Additional hops: 2699
Adding flit 65617 as NACK at time 1884
Additional hops: 2702
Adding flit 87255 as NACK at time 1885
Reenqueueing errored packet 107506 at time 1887
Reenqueueing errored packet 47328 at time 1889
Additional hops: 2711
Adding flit 38776 as NACK at time 1889
Reenqueueing errored packet 35183 at time 1890
Reenqueueing errored packet 87255 at time 1892
Additional hops: 2723
Adding flit 56715 as NACK at time 1895
Reenqueueing errored packet 57021 at time 1898
Reenqueueing errored packet 33271 at time 1898
Reenqueueing errored packet 65617 at time 1899
Additional hops: 2731
Adding flit 65344 as NACK at time 1899
Additional hops: 2739
Adding flit 77660 as NACK at time 1907
Additional hops: 2746
Adding flit 66459 as NACK at time 1907
Reenqueueing errored packet 38776 at time 1908
Additional hops: 2753
Adding flit 58439 as NACK at time 1908
Additional hops: 2761
Adding flit 82072 as NACK at time 1910
Reenqueueing errored packet 65344 at time 1916
Reenqueueing errored packet 56715 at time 1920
Reenqueueing errored packet 66459 at time 1922
Additional hops: 2764
Adding flit 72093 as NACK at time 1922
Reenqueueing errored packet 58439 at time 1923
Reenqueueing errored packet 77660 at time 1924
Additional hops: 2768
Adding flit 79212 as NACK at time 1925
Additional hops: 2774
Adding flit 46077 as NACK at time 1926
Reenqueueing errored packet 82072 at time 1927
Reenqueueing errored packet 72093 at time 1929
Reenqueueing errored packet 79212 at time 1934
Additional hops: 2783
Adding flit 72056 as NACK at time 1938
Reenqueueing errored packet 46077 at time 1939
Additional hops: 2788
Adding flit 70019 as NACK at time 1939
Additional hops: 2794
Adding flit 41353 as NACK at time 1939
Additional hops: 2799
Adding flit 54857 as NACK at time 1941
Additional hops: 2804
Adding flit 78306 as NACK at time 1943
Additional hops: 2809
Adding flit 94848 as NACK at time 1944
Additional hops: 2818
Adding flit 49402 as NACK at time 1948
Reenqueueing errored packet 70019 at time 1950
Reenqueueing errored packet 54857 at time 1952
Reenqueueing errored packet 41353 at time 1952
Reenqueueing errored packet 78306 at time 1954
Additional hops: 2825
Adding flit 74355 as NACK at time 1954
Reenqueueing errored packet 94848 at time 1955
Reenqueueing errored packet 72056 at time 1957
Additional hops: 2835
Adding flit 55564 as NACK at time 1960
Additional hops: 2841
Adding flit 67904 as NACK at time 1961
Additional hops: 2849
Adding flit 60594 as NACK at time 1961
Additional hops: 2853
Adding flit 96805 as NACK at time 1964
Reenqueueing errored packet 49402 at time 1967
Additional hops: 2861
Adding flit 74710 as NACK at time 1968
Reenqueueing errored packet 74355 at time 1969
Reenqueueing errored packet 96805 at time 1973
Reenqueueing errored packet 67904 at time 1974
Reenqueueing errored packet 60594 at time 1978
Additional hops: 2866
Adding flit 68637 as NACK at time 1979
Reenqueueing errored packet 55564 at time 1981
Additional hops: 2871
Adding flit 80553 as NACK at time 1981
Additional hops: 2878
Adding flit 42941 as NACK at time 1984
Reenqueueing errored packet 74710 at time 1985
Additional hops: 2886
Adding flit 71874 as NACK at time 1985
Additional hops: 2893
Adding flit 60065 as NACK at time 1987
Reenqueueing errored packet 68637 at time 1990
Additional hops: 2901
Adding flit 59850 as NACK at time 1991
Reenqueueing errored packet 80553 at time 1992
Additional hops: 2902
Adding flit 114524 as NACK at time 1995
Reenqueueing errored packet 114524 at time 1998
Additional hops: 2907
Adding flit 78269 as NACK at time 1998
Reenqueueing errored packet 42941 at time 1999
Additional hops: 2912
Adding flit 84045 as NACK at time 1999
Additional hops: 2916
Adding flit 55097 as NACK at time 2001
Reenqueueing errored packet 60065 at time 2002
Reenqueueing errored packet 71874 at time 2002
Additional hops: 2923
Adding flit 80105 as NACK at time 2004
Additional hops: 2937
Adding flit 32768 as NACK at time 2004
Additional hops: 2941
Adding flit 85132 as NACK at time 2006
Additional hops: 2945
Adding flit 103036 as NACK at time 2006
Reenqueueing errored packet 59850 at time 2008
Reenqueueing errored packet 78269 at time 2009
Reenqueueing errored packet 55097 at time 2010
Reenqueueing errored packet 84045 at time 2010
Additional hops: 2948
Adding flit 85262 as NACK at time 2011
Additional hops: 2951
Adding flit 86418 as NACK at time 2012
Additional hops: 2955
Adding flit 93269 as NACK at time 2012
Reenqueueing errored packet 103036 at time 2015
Reenqueueing errored packet 85132 at time 2015
Additional hops: 2963
Adding flit 77771 as NACK at time 2016
Reenqueueing errored packet 85262 at time 2018
Reenqueueing errored packet 86418 at time 2019
Reenqueueing errored packet 80105 at time 2019
Additional hops: 2971
Adding flit 72575 as NACK at time 2019
Reenqueueing errored packet 93269 at time 2021
Additional hops: 2979
Adding flit 70446 as NACK at time 2025
Additional hops: 2988
Adding flit 78283 as NACK at time 2031
Reenqueueing errored packet 77771 at time 2033
Reenqueueing errored packet 32768 at time 2033
Additional hops: 2994
Adding flit 80748 as NACK at time 2033
Additional hops: 3006
Adding flit 35734 as NACK at time 2034
Additional hops: 3015
Adding flit 63721 as NACK at time 2035
Reenqueueing errored packet 72575 at time 2036
Reenqueueing errored packet 70446 at time 2042
Reenqueueing errored packet 80748 at time 2046
Additional hops: 3025
Adding flit 31517 as NACK at time 2046
Additional hops: 3038
Adding flit 32643 as NACK at time 2048
Additional hops: 3041
Adding flit 101582 as NACK at time 2049
Reenqueueing errored packet 78283 at time 2050
Additional hops: 3046
Adding flit 78609 as NACK at time 2051
Reenqueueing errored packet 63721 at time 2054
Additional hops: 3054
Adding flit 94193 as NACK at time 2055
Reenqueueing errored packet 101582 at time 2056
Additional hops: 3062
Adding flit 35955 as NACK at time 2057
Reenqueueing errored packet 35734 at time 2059
Reenqueueing errored packet 78609 at time 2062
Reenqueueing errored packet 31517 at time 2067
Additional hops: 3070
Adding flit 51436 as NACK at time 2069
Additional hops: 3083
Adding flit 36146 as NACK at time 2069
Reenqueueing errored packet 94193 at time 2072
Reenqueueing errored packet 35955 at time 2074
Reenqueueing errored packet 32643 at time 2075
Additional hops: 3094
Adding flit 61112 as NACK at time 2079
Additional hops: 3104
Adding flit 35683 as NACK at time 2080
Reenqueueing errored packet 51436 at time 2086
Additional hops: 3120
Adding flit 15970 as NACK at time 2087
Additional hops: 3130
Adding flit 45883 as NACK at time 2091
Reenqueueing errored packet 36146 at time 2096
Additional hops: 3137
Adding flit 65025 as NACK at time 2096
Additional hops: 3143
Adding flit 87201 as NACK at time 2096
Additional hops: 3149
Adding flit 101232 as NACK at time 2097
Additional hops: 3156
Adding flit 84896 as NACK at time 2098
Reenqueueing errored packet 35683 at time 2101
Reenqueueing errored packet 61112 at time 2102
Additional hops: 3161
Adding flit 110333 as NACK at time 2105
Additional hops: 3165
Adding flit 82507 as NACK at time 2107
Additional hops: 3175
Adding flit 64869 as NACK at time 2108
Reenqueueing errored packet 87201 at time 2109
Reenqueueing errored packet 101232 at time 2110
Reenqueueing errored packet 65025 at time 2111
Reenqueueing errored packet 45883 at time 2112
Additional hops: 3181
Adding flit 71765 as NACK at time 2112
Reenqueueing errored packet 84896 at time 2113
Reenqueueing errored packet 82507 at time 2116
Reenqueueing errored packet 110333 at time 2116
Additional hops: 3185
Adding flit 64136 as NACK at time 2118
Reenqueueing errored packet 15970 at time 2120
Additional hops: 3194
Adding flit 88013 as NACK at time 2120
Additional hops: 3202
Adding flit 89836 as NACK at time 2123
Reenqueueing errored packet 71765 at time 2125
Reenqueueing errored packet 64136 at time 2127
Additional hops: 3205
Adding flit 99846 as NACK at time 2128
Reenqueueing errored packet 64869 at time 2129
Additional hops: 3211
Adding flit 80562 as NACK at time 2130
Additional hops: 3216
Adding flit 59754 as NACK at time 2131
Reenqueueing errored packet 99846 at time 2135
Reenqueueing errored packet 88013 at time 2139
Reenqueueing errored packet 89836 at time 2140
Reenqueueing errored packet 59754 at time 2142
Additional hops: 3223
Adding flit 60563 as NACK at time 2142
Reenqueueing errored packet 80562 at time 2143
Additional hops: 3228
Adding flit 62295 as NACK at time 2143
Additional hops: 3236
Adding flit 54749 as NACK at time 2148
Reenqueueing errored packet 62295 at time 2154
Additional hops: 3245
Adding flit 54442 as NACK at time 2155
Additional hops: 3254
Adding flit 46440 as NACK at time 2156
Reenqueueing errored packet 60563 at time 2157
Additional hops: 3259
Adding flit 92348 as NACK at time 2157
Additional hops: 3266
Adding flit 88452 as NACK at time 2158
Reenqueueing errored packet 54749 at time 2165
Reenqueueing errored packet 92348 at time 2168
Additional hops: 3273
Adding flit 58212 as NACK at time 2171
Reenqueueing errored packet 88452 at time 2173
Reenqueueing errored packet 54442 at time 2174
Reenqueueing errored packet 46440 at time 2175
Additional hops: 3278
Adding flit 91756 as NACK at time 2179
Additional hops: 3288
Adding flit 36356 as NACK at time 2179
Additional hops: 3294
Adding flit 94242 as NACK at time 2181
Additional hops: 3298
Adding flit 116556 as NACK at time 2182
Reenqueueing errored packet 58212 at time 2186
Reenqueueing errored packet 91756 at time 2190
Reenqueueing errored packet 116556 at time 2191
Additional hops: 3309
Adding flit 42352 as NACK at time 2191
Reenqueueing errored packet 94242 at time 2194
Additional hops: 3319
Adding flit 61932 as NACK at time 2195
Additional hops: 3323
Adding flit 117532 as NACK at time 2197
Reenqueueing errored packet 36356 at time 2200
Additional hops: 3325
Adding flit 115295 as NACK at time 2203
Additional hops: 3328
Adding flit 104255 as NACK at time 2205
Reenqueueing errored packet 117532 at time 2206
Additional hops: 3333
Adding flit 66009 as NACK at time 2207
Reenqueueing errored packet 115295 at time 2208
Additional hops: 3341
Adding flit 74691 as NACK at time 2209
Reenqueueing errored packet 104255 at time 2212
Additional hops: 3345
Adding flit 110587 as NACK at time 2212
Additional hops: 3353
Adding flit 76562 as NACK at time 2213
Reenqueueing errored packet 42352 at time 2214
Reenqueueing errored packet 61932 at time 2216
Reenqueueing errored packet 66009 at time 2218
Additional hops: 3357
Adding flit 91316 as NACK at time 2220
Reenqueueing errored packet 110587 at time 2221
Additional hops: 3363
Adding flit 86794 as NACK at time 2223
Reenqueueing errored packet 74691 at time 2226
Reenqueueing errored packet 91316 at time 2229
Reenqueueing errored packet 76562 at time 2230
Reenqueueing errored packet 86794 at time 2236
Additional hops: 3368
Adding flit 69229 as NACK at time 2236
Additional hops: 3376
Adding flit 74523 as NACK at time 2245
Reenqueueing errored packet 69229 at time 2247
Additional hops: 3383
Adding flit 96466 as NACK at time 2247
Additional hops: 3389
Adding flit 71711 as NACK at time 2247
Additional hops: 3398
Adding flit 89237 as NACK at time 2254
Reenqueueing errored packet 71711 at time 2260
Reenqueueing errored packet 96466 at time 2262
Reenqueueing errored packet 74523 at time 2262
Reenqueueing errored packet 89237 at time 2273
Additional hops: 3407
Adding flit 48605 as NACK at time 2277
Additional hops: 3414
Adding flit 51743 as NACK at time 2288
Additional hops: 3424
Adding flit 72443 as NACK at time 2295
Reenqueueing errored packet 48605 at time 2296
Additional hops: 3430
Adding flit 96360 as NACK at time 2302
Reenqueueing errored packet 51743 at time 2303
Additional hops: 3440
Adding flit 51641 as NACK at time 2305
Additional hops: 3444
Adding flit 119426 as NACK at time 2306
Additional hops: 3453
Adding flit 47536 as NACK at time 2307
Additional hops: 3457
Adding flit 91290 as NACK at time 2310
Additional hops: 3463
Adding flit 70421 as NACK at time 2312
Reenqueueing errored packet 119426 at time 2315
Reenqueueing errored packet 96360 at time 2315
Reenqueueing errored packet 72443 at time 2316
Additional hops: 3467
Adding flit 123833 as NACK at time 2317
Reenqueueing errored packet 91290 at time 2319
Additional hops: 3471
Adding flit 97160 as NACK at time 2320
Additional hops: 3480
Adding flit 65816 as NACK at time 2321
Additional hops: 3490
Adding flit 67558 as NACK at time 2323
Reenqueueing errored packet 70421 at time 2325
Reenqueueing errored packet 123833 at time 2326
Reenqueueing errored packet 47536 at time 2326
Reenqueueing errored packet 51641 at time 2326
Additional hops: 3495
Adding flit 105663 as NACK at time 2326
Additional hops: 3499
Adding flit 98274 as NACK at time 2328
Reenqueueing errored packet 97160 at time 2329
Additional hops: 3511
Adding flit 53488 as NACK at time 2330
Reenqueueing errored packet 98274 at time 2337
Reenqueueing errored packet 105663 at time 2337
Reenqueueing errored packet 65816 at time 2340
Reenqueueing errored packet 67558 at time 2344
Additional hops: 3521
Adding flit 35788 as NACK at time 2346
Additional hops: 3532
Adding flit 41399 as NACK at time 2346
Additional hops: 3538
Adding flit 59595 as NACK at time 2348
Reenqueueing errored packet 53488 at time 2355
Additional hops: 3547
Adding flit 48961 as NACK at time 2358
Reenqueueing errored packet 59595 at time 2361
Additional hops: 3554
Adding flit 67244 as NACK at time 2363
Reenqueueing errored packet 35788 at time 2367
Reenqueueing errored packet 41399 at time 2369
Additional hops: 3564
Adding flit 88534 as NACK at time 2369
Additional hops: 3572
Adding flit 49209 as NACK at time 2372
Reenqueueing errored packet 48961 at time 2377
Reenqueueing errored packet 67244 at time 2378
Additional hops: 3580
Adding flit 71709 as NACK at time 2386
Reenqueueing errored packet 49209 at time 2389
Reenqueueing errored packet 88534 at time 2390
Additional hops: 3583
Adding flit 108751 as NACK at time 2390
Additional hops: 3587
Adding flit 96375 as NACK at time 2393
Reenqueueing errored packet 108751 at time 2397
Additional hops: 3595
Adding flit 99428 as NACK at time 2401
Reenqueueing errored packet 96375 at time 2402
Additional hops: 3601
Adding flit 107129 as NACK at time 2402
Additional hops: 3604
Adding flit 102731 as NACK at time 2402
Reenqueueing errored packet 71709 at time 2403
Additional hops: 3611
Adding flit 99660 as NACK at time 2405
Additional hops: 3613
Adding flit 128387 as NACK at time 2406
Additional hops: 3623
Adding flit 72576 as NACK at time 2408
Reenqueueing errored packet 102731 at time 2409
Reenqueueing errored packet 128387 at time 2411
Reenqueueing errored packet 107129 at time 2415
Reenqueueing errored packet 99428 at time 2418
Additional hops: 3627
Adding flit 125792 as NACK at time 2418
Additional hops: 3635
Adding flit 54688 as NACK at time 2418
Reenqueueing errored packet 99660 at time 2420
Additional hops: 3641
Adding flit 100523 as NACK at time 2421
Additional hops: 3646
Adding flit 72352 as NACK at time 2422
Reenqueueing errored packet 125792 at time 2427
Additional hops: 3657
Adding flit 44964 as NACK at time 2428
Reenqueueing errored packet 72576 at time 2429
Additional hops: 3665
Adding flit 69068 as NACK at time 2432
Reenqueueing errored packet 72352 at time 2433
Reenqueueing errored packet 100523 at time 2434
Additional hops: 3671
Adding flit 127277 as NACK at time 2436
Additional hops: 3680
Adding flit 60478 as NACK at time 2443
Additional hops: 3685
Adding flit 96962 as NACK at time 2444
Reenqueueing errored packet 127277 at time 2449
Reenqueueing errored packet 69068 at time 2449
Additional hops: 3690
Adding flit 95247 as NACK at time 2449
Additional hops: 3701
Adding flit 39711 as NACK at time 2449
Additional hops: 3710
Adding flit 50719 as NACK at time 2450
Reenqueueing errored packet 44964 at time 2451
Reenqueueing errored packet 96962 at time 2455
Additional hops: 3719
Adding flit 55070 as NACK at time 2455
Additional hops: 3726
Adding flit 108499 as NACK at time 2457
Additional hops: 3728
Adding flit 129294 as NACK at time 2458
Reenqueueing errored packet 95247 at time 2460
Additional hops: 3734
Adding flit 102521 as NACK at time 2460
Additional hops: 3739
Adding flit 82911 as NACK at time 2460
Reenqueueing errored packet 60478 at time 2462
Reenqueueing errored packet 129294 at time 2463
Additional hops: 3746
Adding flit 55357 as NACK at time 2465
Reenqueueing errored packet 82911 at time 2471
Additional hops: 3753
Adding flit 89849 as NACK at time 2471
Reenqueueing errored packet 108499 at time 2472
Reenqueueing errored packet 102521 at time 2473
Reenqueueing errored packet 55070 at time 2474
Reenqueueing errored packet 55357 at time 2480
Reenqueueing errored packet 89849 at time 2486
Additional hops: 3762
Adding flit 73781 as NACK at time 2493
Additional hops: 3767
Adding flit 81788 as NACK at time 2494
Additional hops: 3771
Adding flit 104825 as NACK at time 2499
Reenqueueing errored packet 104825 at time 2508
Additional hops: 3776
Adding flit 64554 as NACK at time 2511
Reenqueueing errored packet 73781 at time 2512
Additional hops: 3783
Adding flit 76958 as NACK at time 2514
Additional hops: 3790
Adding flit 75013 as NACK at time 2518
Reenqueueing errored packet 64554 at time 2522
Additional hops: 3805
Adding flit 37594 as NACK at time 2523
Reenqueueing errored packet 76958 at time 2529
Reenqueueing errored packet 75013 at time 2533
Additional hops: 3807
Adding flit 108105 as NACK at time 2536
Additional hops: 3818
Adding flit 46657 as NACK at time 2537
Reenqueueing errored packet 108105 at time 2541
Additional hops: 3827
Adding flit 52401 as NACK at time 2542
Additional hops: 3833
Adding flit 106130 as NACK at time 2545
Additional hops: 3837
Adding flit 133315 as NACK at time 2547
Reenqueueing errored packet 37594 at time 2554
Reenqueueing errored packet 133315 at time 2556
Reenqueueing errored packet 106130 at time 2558
Reenqueueing errored packet 46657 at time 2560
Reenqueueing errored packet 52401 at time 2561
Additional hops: 3849
Adding flit 47468 as NACK at time 2566
Additional hops: 3852
Adding flit 131747 as NACK at time 2576
Additional hops: 3862
Adding flit 43730 as NACK at time 2577
Additional hops: 3865
Adding flit 85622 as NACK at time 2579
Additional hops: 3876
Adding flit 43152 as NACK at time 2580
Reenqueueing errored packet 131747 at time 2583
Additional hops: 3882
Adding flit 77854 as NACK at time 2584
Additional hops: 3892
Adding flit 82572 as NACK at time 2590
Reenqueueing errored packet 47468 at time 2591
Additional hops: 3901
Adding flit 57762 as NACK at time 2591
Additional hops: 3912
Adding flit 79176 as NACK at time 2591
Additional hops: 3916
Adding flit 94952 as NACK at time 2594
Reenqueueing errored packet 77854 at time 2597
Reenqueueing errored packet 43730 at time 2598
Reenqueueing errored packet 94952 at time 2603
Additional hops: 3923
Adding flit 80981 as NACK at time 2605
Additional hops: 3930
Adding flit 119549 as NACK at time 2609
Reenqueueing errored packet 57762 at time 2610
Reenqueueing errored packet 82572 at time 2611
Reenqueueing errored packet 79176 at time 2614
Additional hops: 3940
Adding flit 48641 as NACK at time 2617
Reenqueueing errored packet 80981 at time 2620
Reenqueueing errored packet 119549 at time 2624
Additional hops: 3950
Adding flit 56439 as NACK at time 2629
Reenqueueing errored packet 48641 at time 2638
Additional hops: 3959
Adding flit 92446 as NACK at time 2642
Reenqueueing errored packet 56439 at time 2650
Additional hops: 3970
Adding flit 49570 as NACK at time 2654
Additional hops: 3974
Adding flit 141291 as NACK at time 2655
Additional hops: 3978
Adding flit 121837 as NACK at time 2656
Reenqueueing errored packet 92446 at time 2661
Reenqueueing errored packet 141291 at time 2664
Additional hops: 3985
Adding flit 59215 as NACK at time 2664
Reenqueueing errored packet 121837 at time 2665
Additional hops: 3994
Adding flit 79343 as NACK at time 2668
Additional hops: 3999
Adding flit 104483 as NACK at time 2670
Additional hops: 4004
Adding flit 90085 as NACK at time 2670
Additional hops: 4011
Adding flit 95117 as NACK at time 2675
Additional hops: 4018
Adding flit 105854 as NACK at time 2678
Reenqueueing errored packet 59215 at time 2679
Reenqueueing errored packet 90085 at time 2681
Reenqueueing errored packet 104483 at time 2681
Additional hops: 4022
Adding flit 116673 as NACK at time 2682
Additional hops: 4029
Adding flit 114632 as NACK at time 2686
Reenqueueing errored packet 79343 at time 2687
Reenqueueing errored packet 95117 at time 2690
Reenqueueing errored packet 116673 at time 2691
Reenqueueing errored packet 105854 at time 2693
Additional hops: 4034
Adding flit 122663 as NACK at time 2693
Additional hops: 4041
Adding flit 55472 as NACK at time 2695
Reenqueueing errored packet 114632 at time 2701
Additional hops: 4048
Adding flit 93591 as NACK at time 2702
Reenqueueing errored packet 122663 at time 2704
Additional hops: 4058
Adding flit 63737 as NACK at time 2706
Additional hops: 4065
Adding flit 103019 as NACK at time 2707
Additional hops: 4074
Adding flit 51398 as NACK at time 2708
Additional hops: 4077
Adding flit 141622 as NACK at time 2716
Additional hops: 4083
Adding flit 94529 as NACK at time 2720
Additional hops: 4087
Adding flit 112520 as NACK at time 2721
Reenqueueing errored packet 103019 at time 2722
Reenqueueing errored packet 141622 at time 2723
Additional hops: 4097
Adding flit 54853 as NACK at time 2726
Reenqueueing errored packet 63737 at time 2727
Reenqueueing errored packet 112520 at time 2730
Additional hops: 4103
Adding flit 140346 as NACK at time 2730
Reenqueueing errored packet 94529 at time 2733
Additional hops: 4105
Adding flit 152730 as NACK at time 2736
Reenqueueing errored packet 152730 at time 2741
Additional hops: 4117
Adding flit 41839 as NACK at time 2741
Reenqueueing errored packet 140346 at time 2743
Additional hops: 4124
Adding flit 113278 as NACK at time 2746
Additional hops: 4132
Adding flit 56454 as NACK at time 2751
Additional hops: 4140
Adding flit 89331 as NACK at time 2753
Reenqueueing errored packet 113278 at time 2761
Additional hops: 4150
Adding flit 54253 as NACK at time 2761
Additional hops: 4159
Adding flit 75626 as NACK at time 2765
Reenqueueing errored packet 41839 at time 2766
Reenqueueing errored packet 56454 at time 2768
Additional hops: 4162
Adding flit 120541 as NACK at time 2768
Reenqueueing errored packet 89331 at time 2770
Additional hops: 4170
Adding flit 109468 as NACK at time 2772
Additional hops: 4172
Adding flit 142853 as NACK at time 2774
Reenqueueing errored packet 120541 at time 2775
Additional hops: 4178
Adding flit 117108 as NACK at time 2775
Reenqueueing errored packet 142853 at time 2779
Reenqueueing errored packet 54253 at time 2782
Additional hops: 4181
Adding flit 141734 as NACK at time 2783
Reenqueueing errored packet 75626 at time 2784
Reenqueueing errored packet 117108 at time 2788
Reenqueueing errored packet 109468 at time 2789
Additional hops: 4188
Adding flit 118184 as NACK at time 2789
Reenqueueing errored packet 141734 at time 2790
Additional hops: 4192
Adding flit 119240 as NACK at time 2796
Additional hops: 4196
Adding flit 130057 as NACK at time 2796
Additional hops: 4204
Adding flit 116234 as NACK at time 2797
Additional hops: 4208
Adding flit 144871 as NACK at time 2798
Additional hops: 4214
Adding flit 130266 as NACK at time 2800
Reenqueueing errored packet 118184 at time 2804
Reenqueueing errored packet 130057 at time 2805
Reenqueueing errored packet 119240 at time 2805
Reenqueueing errored packet 144871 at time 2807
Additional hops: 4222
Adding flit 114997 as NACK at time 2807
Additional hops: 4232
Adding flit 49096 as NACK at time 2808
Additional hops: 4246
Adding flit 44674 as NACK at time 2810
Reenqueueing errored packet 130266 at time 2813
Additional hops: 4249
Adding flit 156178 as NACK at time 2813
Reenqueueing errored packet 116234 at time 2814
Additional hops: 4251
Adding flit 131476 as NACK at time 2818
Reenqueueing errored packet 156178 at time 2820
Reenqueueing errored packet 131476 at time 2823
Reenqueueing errored packet 114997 at time 2824
Additional hops: 4261
Adding flit 50015 as NACK at time 2825
Additional hops: 4266
Adding flit 139339 as NACK at time 2829
Reenqueueing errored packet 44674 at time 2839
Additional hops: 4274
Adding flit 62613 as NACK at time 2839
Reenqueueing errored packet 139339 at time 2840
Reenqueueing errored packet 50015 at time 2846
Additional hops: 4279
Adding flit 111407 as NACK at time 2848
Additional hops: 4284
Adding flit 83792 as NACK at time 2851
Additional hops: 4293
Adding flit 83013 as NACK at time 2853
Reenqueueing errored packet 62613 at time 2856
Additional hops: 4301
Adding flit 82138 as NACK at time 2858
Reenqueueing errored packet 111407 at time 2859
Additional hops: 4310
Adding flit 63174 as NACK at time 2859
Additional hops: 4320
Adding flit 57597 as NACK at time 2861
Reenqueueing errored packet 83792 at time 2862
Additional hops: 4326
Adding flit 122730 as NACK at time 2866
Additional hops: 4332
Adding flit 81362 as NACK at time 2867
Additional hops: 4335
Adding flit 157742 as NACK at time 2868
Additional hops: 4338
Adding flit 107430 as NACK at time 2870
Reenqueueing errored packet 83013 at time 2872
Reenqueueing errored packet 157742 at time 2875
Reenqueueing errored packet 82138 at time 2875
Reenqueueing errored packet 107430 at time 2877
Reenqueueing errored packet 63174 at time 2878
Reenqueueing errored packet 122730 at time 2879
Reenqueueing errored packet 81362 at time 2880
Reenqueueing errored packet 57597 at time 2882
Additional hops: 4350
Adding flit 48197 as NACK at time 2884
Additional hops: 4361
Adding flit 88786 as NACK at time 2893
Additional hops: 4370
Adding flit 63264 as NACK at time 2896
Additional hops: 4374
Adding flit 117304 as NACK at time 2905
Additional hops: 4377
Adding flit 149417 as NACK at time 2905
Additional hops: 4387
Adding flit 55747 as NACK at time 2906
Reenqueueing errored packet 149417 at time 2912
Additional hops: 4388
Adding flit 158905 as NACK at time 2912
Reenqueueing errored packet 117304 at time 2914
Reenqueueing errored packet 158905 at time 2915
Reenqueueing errored packet 63264 at time 2915
Reenqueueing errored packet 88786 at time 2916
Additional hops: 4392
Adding flit 144964 as NACK at time 2916
Additional hops: 4402
Adding flit 68771 as NACK at time 2917
Additional hops: 4408
Adding flit 92145 as NACK at time 2919
Additional hops: 4415
Adding flit 68287 as NACK at time 2919
Additional hops: 4427
Adding flit 49664 as NACK at time 2923
Additional hops: 4436
Adding flit 108629 as NACK at time 2923
Reenqueueing errored packet 144964 at time 2925
Reenqueueing errored packet 55747 at time 2927
Reenqueueing errored packet 92145 at time 2932
Reenqueueing errored packet 68771 at time 2938
Additional hops: 4446
Adding flit 75882 as NACK at time 2938
Additional hops: 4455
Adding flit 110678 as NACK at time 2940
Reenqueueing errored packet 108629 at time 2942
Reenqueueing errored packet 49664 at time 2948
Additional hops: 4459
Adding flit 91430 as NACK at time 2948
Additional hops: 4463
Adding flit 127864 as NACK at time 2956
Reenqueueing errored packet 91430 at time 2957
Reenqueueing errored packet 110678 at time 2959
Reenqueueing errored packet 75882 at time 2959
Additional hops: 4471
Adding flit 123216 as NACK at time 2960
Additional hops: 4477
Adding flit 90272 as NACK at time 2960
Reenqueueing errored packet 127864 at time 2965
Additional hops: 4479
Adding flit 134607 as NACK at time 2971
Reenqueueing errored packet 90272 at time 2973
Reenqueueing errored packet 134607 at time 2976
Reenqueueing errored packet 123216 at time 2977
Additional hops: 4484
Adding flit 137976 as NACK at time 2982
Additional hops: 4490
Adding flit 76948 as NACK at time 2984
Additional hops: 4499
Adding flit 56654 as NACK at time 2986
Additional hops: 4510
Adding flit 59699 as NACK at time 2988
Additional hops: 4518
Adding flit 109183 as NACK at time 2988
Additional hops: 4528
Adding flit 54153 as NACK at time 2989
Additional hops: 4534
Adding flit 86075 as NACK at time 2991
Reenqueueing errored packet 137976 at time 2993
Additional hops: 4537
Adding flit 152741 as NACK at time 2994
Additional hops: 4544
Adding flit 65358 as NACK at time 3000
Reenqueueing errored packet 152741 at time 3001
Additional hops: 4548
Adding flit 152179 as NACK at time 3003
Reenqueueing errored packet 86075 at time 3004
Reenqueueing errored packet 109183 at time 3005
Reenqueueing errored packet 56654 at time 3005
Reenqueueing errored packet 59699 at time 3011
Reenqueueing errored packet 152179 at time 3012
Reenqueueing errored packet 65358 at time 3015
Additional hops: 4557
Adding flit 121895 as NACK at time 3017
Additional hops: 4569
Adding flit 69402 as NACK at time 3021
Additional hops: 4575
Adding flit 138920 as NACK at time 3021
Reenqueueing errored packet 138920 at time 3034
Reenqueueing errored packet 121895 at time 3036
Additional hops: 4582
Adding flit 116706 as NACK at time 3038
Additional hops: 4591
Adding flit 80506 as NACK at time 3043
Reenqueueing errored packet 69402 at time 3046
Additional hops: 4598
Adding flit 145869 as NACK at time 3051
Reenqueueing errored packet 116706 at time 3053
Additional hops: 4606
Adding flit 108908 as NACK at time 3060
Additional hops: 4618
Adding flit 100579 as NACK at time 3060
Reenqueueing errored packet 80506 at time 3062
Additional hops: 4625
Adding flit 64183 as NACK at time 3062
Additional hops: 4628
Adding flit 93212 as NACK at time 3062
Additional hops: 4638
Adding flit 56537 as NACK at time 3065
Additional hops: 4647
Adding flit 78706 as NACK at time 3065
Reenqueueing errored packet 145869 at time 3066
Additional hops: 4658
Adding flit 80092 as NACK at time 3069
Additional hops: 4662
Adding flit 105316 as NACK at time 3072
Additional hops: 4674
Adding flit 140346 as NACK at time 3073
Additional hops: 4680
Adding flit 130587 as NACK at time 3075
Reenqueueing errored packet 108908 at time 3077
Additional hops: 4690
Adding flit 69463 as NACK at time 3077
Reenqueueing errored packet 105316 at time 3081
Reenqueueing errored packet 78706 at time 3084
Additional hops: 4694
Adding flit 131504 as NACK at time 3084
Reenqueueing errored packet 100579 at time 3085
Reenqueueing errored packet 56537 at time 3086
Reenqueueing errored packet 130587 at time 3088
Additional hops: 4697
Adding flit 112320 as NACK at time 3088
Reenqueueing errored packet 80092 at time 3092
Additional hops: 4710
Adding flit 50630 as NACK at time 3092
Reenqueueing errored packet 131504 at time 3093
Additional hops: 4712
Adding flit 150411 as NACK at time 3093
Additional hops: 4715
Adding flit 117012 as NACK at time 3094
Additional hops: 4718
Adding flit 144248 as NACK at time 3094
Reenqueueing errored packet 150411 at time 3098
Reenqueueing errored packet 69463 at time 3098
Reenqueueing errored packet 140346 at time 3098
Reenqueueing errored packet 144248 at time 3101
Reenqueueing errored packet 117012 at time 3101
Additional hops: 4724
Adding flit 95060 as NACK at time 3104
Additional hops: 4730
Adding flit 133349 as NACK at time 3105
Additional hops: 4736
Adding flit 121484 as NACK at time 3109
Additional hops: 4742
Adding flit 122279 as NACK at time 3112
Reenqueueing errored packet 95060 at time 3117
Reenqueueing errored packet 133349 at time 3118
Additional hops: 4752
Adding flit 109086 as NACK at time 3119
Reenqueueing errored packet 121484 at time 3122
Reenqueueing errored packet 122279 at time 3125
Additional hops: 4758
Adding flit 94561 as NACK at time 3128
Additional hops: 4764
Adding flit 134346 as NACK at time 3135
Additional hops: 4767
Adding flit 134096 as NACK at time 3137
Reenqueueing errored packet 109086 at time 3140
Additional hops: 4776
Adding flit 64659 as NACK at time 3140
Reenqueueing errored packet 94561 at time 3141
Reenqueueing errored packet 134096 at time 3144
Additional hops: 4780
Adding flit 120851 as NACK at time 3146
Reenqueueing errored packet 134346 at time 3148
Additional hops: 4782
Adding flit 111541 as NACK at time 3152
Additional hops: 4790
Adding flit 100629 as NACK at time 3154
Additional hops: 4795
Adding flit 93873 as NACK at time 3155
Reenqueueing errored packet 64659 at time 3159
Reenqueueing errored packet 93873 at time 3166
Additional hops: 4802
Adding flit 118128 as NACK at time 3169
Additional hops: 4812
Adding flit 122539 as NACK at time 3170
Additional hops: 4820
Adding flit 129533 as NACK at time 3171
Additional hops: 4825
Adding flit 96021 as NACK at time 3172
Additional hops: 4831
Adding flit 143890 as NACK at time 3174
Additional hops: 4837
Adding flit 135922 as NACK at time 3174
Additional hops: 4850
Adding flit 52200 as NACK at time 3175
Additional hops: 4861
Adding flit 66455 as NACK at time 3181
Reenqueueing errored packet 96021 at time 3183
Reenqueueing errored packet 118128 at time 3184
Additional hops: 4869
Adding flit 69190 as NACK at time 3185
Reenqueueing errored packet 135922 at time 3187
Reenqueueing errored packet 129533 at time 3188
Reenqueueing errored packet 122539 at time 3191
Additional hops: 4874
Adding flit 104949 as NACK at time 3193
Additional hops: 4885
Adding flit 70151 as NACK at time 3194
Additional hops: 4893
Adding flit 146346 as NACK at time 3195
Additional hops: 4897
Adding flit 132860 as NACK at time 3196
Reenqueueing errored packet 69190 at time 3202
Reenqueueing errored packet 52200 at time 3202
Reenqueueing errored packet 104949 at time 3204
Reenqueueing errored packet 66455 at time 3204
Additional hops: 4906
Adding flit 116369 as NACK at time 3208
Reenqueueing errored packet 146346 at time 3212
Additional hops: 4914
Adding flit 67722 as NACK at time 3212
Additional hops: 4916
Adding flit 115470 as NACK at time 3221
Additional hops: 4924
Adding flit 90044 as NACK at time 3224
Reenqueueing errored packet 115470 at time 3226
Reenqueueing errored packet 116369 at time 3227
Additional hops: 4931
Adding flit 75957 as NACK at time 3228
Reenqueueing errored packet 67722 at time 3229
Additional hops: 4935
Adding flit 164488 as NACK at time 3232
Additional hops: 4942
Adding flit 130567 as NACK at time 3240
Reenqueueing errored packet 164488 at time 3241
Reenqueueing errored packet 75957 at time 3243
Additional hops: 4950
Adding flit 138684 as NACK at time 3243
Additional hops: 4958
Adding flit 123846 as NACK at time 3247
Additional hops: 4964
Adding flit 144675 as NACK at time 3247
Reenqueueing errored packet 130567 at time 3255
Reenqueueing errored packet 144675 at time 3260
Reenqueueing errored packet 138684 at time 3260
Additional hops: 4969
Adding flit 119703 as NACK at time 3260
Additional hops: 4975
[...]
9172 | network_0/router_4_4/vc_allocator | Input grants = [ 5 -> 6  6 -> 4  ], output grants = [ 4 -> 6  6 -> 5  ].
9172 | network_0/router_4_4 | Assigning VC 0 at output 2 to VC 0 at input 3.
9172 | network_0/router_4_4 | Completed VC allocation for VC 0 at input 3 (front: 192022).
9172 | network_0/router_4_4 |   Acquiring assigned VC 0 at output 2.
9172 | network_0/router_4_4/buf_3/vc_0 | Changing state from vc_alloc to active.
9172 | network_0/router_4_4 | Beginning switch allocation for VC 0 at input 3 (front: 192022).
9172 | network_0/router_4_4 |   Requesting output 2.0 (non-spec, pri: 0).
9172 | network_0/router_4_4/sw_allocator | Input requests = [ 2 -> [ 3@0 ]  3 -> [ 2@0 ]  ], output requests = [ 2 -> [ 3@0 ]  3 -> [ 2@0 ]  ].
9172 | network_0/router_4_4/sw_allocator | Input grants = [ 2 -> 3  3 -> 2  ], output grants = [ 2 -> 3  3 -> 2  ].
9172 | network_0/router_4_4 | Assigning output 2.0 to VC 0 at input 3.0.
9172 | network_0/router_4_4 | Completed switch allocation for VC 0 at input 3 (front: 192022).
9172 | network_0/router_4_4 |   Scheduling switch connection from input 3.0 to output 2.0.
9172 | network_0/router_4_4 | Updating lookahead routing information for flit 192022.
9172 | network_0/router_5_4 | Adding VC range [0,1] at output port 4 for flit 192022 (input port 3, destination 44).
Reenqueueing errored packet 297727 at time 9173
9173 | network_0/router_4_4 | Beginning crossbar traversal for flit 192022 from input 3.0 to output 2.0.
9173 | network_0/router_4_4 | Completed crossbar traversal for flit 192022 from input 3.0 to output 2.0.
9173 | network_0/router_4_4 | Buffering flit 192022 at output 2.
Reenqueueing errored packet 275947 at time 9174
Additional hops: 14406
Adding flit 338629 as NACK at time 9174
9174 | network_0/router_4_4 | Sending flit 192022 to channel at output 2.
9175 | network_0/network_0_fchan_146 | Beginning channel traversal for flit 192022 with delay 1.
9175 | network_0/network_0_fchan_146 | Completed channel traversal for flit 192022.
9176 | network_0/router_5_4 | Received flit 192022 from channel at input 3.
9176 | network_0/router_5_4 | Adding flit 192022 to VC 0 at input 3 (state: idle, empty).
9176 | network_0/router_5_4 | Using precomputed lookahead routing information for VC 0 at input 3 (front: 192022).
9176 | network_0/router_5_4/buf_3/vc_0 | Changing state from idle to vc_alloc.
9176 | network_0/router_5_4 | Beginning VC allocation for VC 0 at input 3 (front: 192022).
9176 | network_0/router_5_4 |   Requesting VC 0 at output 4 (in_pri: 0, out_pri: 0).
9176 | network_0/router_5_4 |   Requesting VC 1 at output 4 (in_pri: 0, out_pri: 0).
9176 | network_0/router_5_4/vc_allocator | Input requests = [ 3 -> [ 6@0 7@0 ]  4 -> [ 8@0 9@0 ]  6 -> [ 8@0 9@0 ]  ], output requests = [ 6 -> [ 3@0 ]  7 -> [ 3@0 ]  8 -> [ 4@0 6@0 ]  9 -> [ 4@0 6@0 ]  ].
9176 | network_0/router_5_4/vc_allocator | Input grants = [ 3 -> 6  6 -> 8  ], output grants = [ 6 -> 3  8 -> 6  ].
9176 | network_0/router_5_4 | Assigning VC 0 at output 4 to VC 0 at input 3.
9176 | network_0/router_5_4 | Completed VC allocation for VC 0 at input 3 (front: 192022).
9176 | network_0/router_5_4 |   Acquiring assigned VC 0 at output 4.
9176 | network_0/router_5_4/buf_3/vc_0 | Changing state from vc_alloc to active.
9176 | network_0/router_5_4 | Beginning switch allocation for VC 0 at input 3 (front: 192022).
9176 | network_0/router_5_4 |   Requesting output 4.0 (non-spec, pri: 0).
9176 | network_0/router_5_4/sw_allocator | Input requests = [ 1 -> [ 3@0 ]  3 -> [ 4@0 ]  ], output requests = [ 3 -> [ 1@0 ]  4 -> [ 3@0 ]  ].
9176 | network_0/router_5_4/sw_allocator | Input grants = [ 1 -> 3  3 -> 4  ], output grants = [ 3 -> 1  4 -> 3  ].
9176 | network_0/router_5_4 | Assigning output 4.0 to VC 0 at input 3.0.
9176 | network_0/router_5_4 | Completed switch allocation for VC 0 at input 3 (front: 192022).
9176 | network_0/router_5_4 |   Scheduling switch connection from input 3.0 to output 4.0.
9177 | network_0/router_5_4 | Beginning crossbar traversal for flit 192022 from input 3.0 to output 4.0.
9177 | network_0/router_5_4 | Completed crossbar traversal for flit 192022 from input 3.0 to output 4.0.
9177 | network_0/router_5_4 | Buffering flit 192022 at output 4.
9177 | network_0/router_5_4 | Sending flit 192022 to channel at output 4.
9178 | network_0/network_0_fchan_egress44 | Beginning channel traversal for flit 192022 with delay 1.
9178 | network_0/network_0_fchan_egress44 | Completed channel traversal for flit 192022.
9179 | node44 | Ejecting flit 192022 (packet 192022) from VC 0.
Additional hops: 14410
Adding flit 301482 as NACK at time 9179
9179 | node44 | Injecting credit for VC 0 into subnet 0.
9179 | node44 | Retiring flit 192022 (packet 192022, src = 31, dest = 44, hops = 6, flat = 5466).
9179 | node44 | Retiring packet 192022 (plat = 5726, nlat = 5466, frag = 0, src = 31, dest = 44).
Additional hops: 14416
Adding flit 290439 as NACK at time 9181
Reenqueueing errored packet 338629 at time 9185
Additional hops: 14425
Adding flit 217018 as NACK at time 9186
Additional hops: 14429
Adding flit 336559 as NACK at time 9186
Reenqueueing errored packet 167866 at time 9188
Reenqueueing errored packet 336559 at time 9195
Additional hops: 14438
Adding flit 208210 as NACK at time 9203
Additional hops: 14443
Adding flit 332326 as NACK at time 9207
Additional hops: 14456
Adding flit 269575 as NACK at time 9207
Additional hops: 14462
Adding flit 242057 as NACK at time 9208
Additional hops: 14472
Adding flit 166362 as NACK at time 9209
Additional hops: 14479
Adding flit 266688 as NACK at time 9210
Additional hops: 14485
Adding flit 336982 as NACK at time 9215
Additional hops: 14491
Adding flit 330869 as NACK at time 9219
Reenqueueing errored packet 208210 at time 9222
Reenqueueing errored packet 336982 at time 9228
Additional hops: 14497
Adding flit 318318 as NACK at time 9233
Reenqueueing errored packet 269575 at time 9234
Additional hops: 14504
Adding flit 242950 as NACK at time 9234
Additional hops: 14513
Adding flit 319186 as NACK at time 9235
Additional hops: 14520
Adding flit 254548 as NACK at time 9238
Additional hops: 14523
Adding flit 281642 as NACK at time 9240
Additional hops: 14528
Adding flit 331233 as NACK at time 9244
Additional hops: 14537
Adding flit 254553 as NACK at time 9245
Reenqueueing errored packet 318318 at time 9246
Reenqueueing errored packet 281642 at time 9247
Additional hops: 14549
Adding flit 317800 as NACK at time 9252
Additional hops: 14560
Adding flit 277266 as NACK at time 9259
Additional hops: 14565
Adding flit 341369 as NACK at time 9259
Additional hops: 14569
Adding flit 330273 as NACK at time 9263
Reenqueueing errored packet 341369 at time 9270
Reenqueueing errored packet 330273 at time 9272
Reenqueueing errored packet 317800 at time 9277
Additional hops: 14574
Adding flit 338838 as NACK at time 9279
Additional hops: 14580
Adding flit 302413 as NACK at time 9279
Additional hops: 14585
Adding flit 336896 as NACK at time 9280
Additional hops: 14593
Adding flit 318007 as NACK at time 9280
Reenqueueing errored packet 277266 at time 9282
Additional hops: 14599
Adding flit 334344 as NACK at time 9282
Additional hops: 14613
Adding flit 158902 as NACK at time 9282
Additional hops: 14624
Adding flit 181384 as NACK at time 9284
Additional hops: 14628
Adding flit 212175 as NACK at time 9284
Reenqueueing errored packet 338838 at time 9290
Reenqueueing errored packet 336896 at time 9291
Additional hops: 14634
Adding flit 303090 as NACK at time 9293
Reenqueueing errored packet 334344 at time 9295
Additional hops: 14641
Adding flit 168839 as NACK at time 9295
Additional hops: 14649
Adding flit 283708 as NACK at time 9295
Additional hops: 14656
Adding flit 336732 as NACK at time 9296
Additional hops: 14667
Adding flit 207868 as NACK at time 9301
Reenqueueing errored packet 303090 at time 9306
Additional hops: 14677
Adding flit 228031 as NACK at time 9309
Reenqueueing errored packet 283708 at time 9312
Additional hops: 14683
Adding flit 242607 as NACK at time 9313
Additional hops: 14688
Adding flit 254489 as NACK at time 9317
Reenqueueing errored packet 207868 at time 9324
Reenqueueing errored packet 254489 at time 9328
Additional hops: 14697
Adding flit 289468 as NACK at time 9331
Additional hops: 14707
Adding flit 323689 as NACK at time 9335
Additional hops: 14717
Adding flit 281857 as NACK at time 9340
Additional hops: 14721
Adding flit 349167 as NACK at time 9342
Reenqueueing errored packet 349167 at time 9351
Additional hops: 14729
Adding flit 291545 as NACK at time 9354
Additional hops: 14737
Adding flit 320509 as NACK at time 9354
Reenqueueing errored packet 281857 at time 9361
Additional hops: 14740
Adding flit 347281 as NACK at time 9362
Additional hops: 14749
Adding flit 321874 as NACK at time 9366
Reenqueueing errored packet 347281 at time 9369
Additional hops: 14760
Adding flit 276911 as NACK at time 9370
Reenqueueing errored packet 320509 at time 9371
Additional hops: 14770
Adding flit 333966 as NACK at time 9371
Additional hops: 14779
Adding flit 332376 as NACK at time 9372
Additional hops: 14784
Adding flit 285074 as NACK at time 9377
Additional hops: 14796
Adding flit 230030 as NACK at time 9380
Additional hops: 14800
Adding flit 259443 as NACK at time 9386
Additional hops: 14807
Adding flit 184006 as NACK at time 9389
Reenqueueing errored packet 332376 at time 9391
Reenqueueing errored packet 333966 at time 9392
Additional hops: 14812
Adding flit 333853 as NACK at time 9393
Additional hops: 14816
Adding flit 342152 as NACK at time 9399
Reenqueueing errored packet 333853 at time 9404
Additional hops: 14821
Adding flit 326210 as NACK at time 9405
Reenqueueing errored packet 342152 at time 9408
Reenqueueing errored packet 326210 at time 9416
Additional hops: 14825
Adding flit 311296 as NACK at time 9420
Additional hops: 14829
Adding flit 350720 as NACK at time 9420
Additional hops: 14836
Adding flit 254628 as NACK at time 9426
Reenqueueing errored packet 350720 at time 9429
Additional hops: 14843
Adding flit 293526 as NACK at time 9432
Additional hops: 14851
Adding flit 318505 as NACK at time 9442
Additional hops: 14857
Adding flit 327623 as NACK at time 9446
Additional hops: 14864
Adding flit 335325 as NACK at time 9448
Additional hops: 14869
Adding flit 322058 as NACK at time 9455
Additional hops: 14876
Adding flit 335337 as NACK at time 9455
Additional hops: 14887
Adding flit 285174 as NACK at time 9460
Reenqueueing errored packet 322058 at time 9466
Additional hops: 14899
Adding flit 221530 as NACK at time 9470
Additional hops: 14910
Adding flit 325166 as NACK at time 9470
Additional hops: 14922
Adding flit 216835 as NACK at time 9473
Additional hops: 14925
Adding flit 349322 as NACK at time 9474
Reenqueueing errored packet 285174 at time 9483
Additional hops: 14935
Adding flit 285388 as NACK at time 9483
Reenqueueing errored packet 325166 at time 9493
Additional hops: 14943
Adding flit 226838 as NACK at time 9497
Additional hops: 14951
Adding flit 288503 as NACK at time 9508
Additional hops: 14958
Adding flit 296527 as NACK at time 9524
Additional hops: 14962
Adding flit 234755 as NACK at time 9526
Additional hops: 14970
Adding flit 173454 as NACK at time 9532
Reenqueueing errored packet 234755 at time 9535
Reenqueueing errored packet 296527 at time 9539
Additional hops: 14971
Adding flit 352082 as NACK at time 9542
Additional hops: 14984
Adding flit 281822 as NACK at time 9543
Reenqueueing errored packet 352082 at time 9545
Additional hops: 14989
Adding flit 310584 as NACK at time 9548
Additional hops: 14998
Adding flit 189653 as NACK at time 9550
Additional hops: 15002
Adding flit 356086 as NACK at time 9558
Reenqueueing errored packet 310584 at time 9559
Reenqueueing errored packet 356086 at time 9567
Additional hops: 15011
Adding flit 337072 as NACK at time 9568
Reenqueueing errored packet 281822 at time 9570
Additional hops: 15019
Adding flit 193596 as NACK at time 9573
Additional hops: 15027
Adding flit 297218 as NACK at time 9580
Additional hops: 15035
Adding flit 181474 as NACK at time 9581
Reenqueueing errored packet 337072 at time 9587
Additional hops: 15039
Adding flit 222066 as NACK at time 9589
Additional hops: 15045
Adding flit 237661 as NACK at time 9590
Reenqueueing errored packet 297218 at time 9597
Additional hops: 15049
Adding flit 363004 as NACK at time 9600
Additional hops: 15058
Adding flit 283197 as NACK at time 9601
Additional hops: 15068
Adding flit 333172 as NACK at time 9602
Additional hops: 15077
Adding flit 338184 as NACK at time 9603
Additional hops: 15086
Adding flit 320095 as NACK at time 9603
Reenqueueing errored packet 363004 at time 9609
Additional hops: 15095
Adding flit 333252 as NACK at time 9609
Additional hops: 15099
Adding flit 327274 as NACK at time 9619
Additional hops: 15105
Adding flit 257803 as NACK at time 9620
Additional hops: 15115
Adding flit 291801 as NACK at time 9621
Reenqueueing errored packet 320095 at time 9622
Reenqueueing errored packet 338184 at time 9622
Reenqueueing errored packet 333172 at time 9623
Additional hops: 15120
Adding flit 300784 as NACK at time 9627
Reenqueueing errored packet 327274 at time 9628
Additional hops: 15132
Adding flit 221301 as NACK at time 9636
Additional hops: 15140
Adding flit 342561 as NACK at time 9642
Additional hops: 15150
Adding flit 226306 as NACK at time 9644
Additional hops: 15160
Adding flit 170657 as NACK at time 9652
Additional hops: 15172
Adding flit 167336 as NACK at time 9657
Additional hops: 15176
Adding flit 301478 as NACK at time 9657
Reenqueueing errored packet 342561 at time 9659
Reenqueueing errored packet 301478 at time 9666
Additional hops: 15179
Adding flit 357581 as NACK at time 9668
Reenqueueing errored packet 357581 at time 9675
Additional hops: 15185
Adding flit 300307 as NACK at time 9675
Additional hops: 15191
Adding flit 346216 as NACK at time 9677
Additional hops: 15195
Adding flit 266066 as NACK at time 9681
Reenqueueing errored packet 300307 at time 9688
Additional hops: 15202
Adding flit 207021 as NACK at time 9689
Reenqueueing errored packet 346216 at time 9690
Additional hops: 15205
Adding flit 358071 as NACK at time 9694
Additional hops: 15211
Adding flit 331436 as NACK at time 9694
Additional hops: 15215
Adding flit 361174 as NACK at time 9696
Reenqueueing errored packet 358071 at time 9701
Additional hops: 15223
Adding flit 230197 as NACK at time 9704
Reenqueueing errored packet 361174 at time 9705
Additional hops: 15234
Adding flit 299552 as NACK at time 9722
Additional hops: 15243
Adding flit 340331 as NACK at time 9725
Additional hops: 15248
Adding flit 332157 as NACK at time 9725
Additional hops: 15255
Adding flit 243811 as NACK at time 9726
Additional hops: 15264
Adding flit 292948 as NACK at time 9727
Additional hops: 15268
Adding flit 351159 as NACK at time 9729
Additional hops: 15277
Adding flit 353327 as NACK at time 9733
Reenqueueing errored packet 332157 at time 9736
Reenqueueing errored packet 243811 at time 9741
Reenqueueing errored packet 340331 at time 9744
Reenqueueing errored packet 292948 at time 9746
Additional hops: 15280
Adding flit 359650 as NACK at time 9747
Additional hops: 15287
Adding flit 311752 as NACK at time 9751
Reenqueueing errored packet 353327 at time 9752
Additional hops: 15291
Adding flit 352224 as NACK at time 9753
Reenqueueing errored packet 359650 at time 9754
Reenqueueing errored packet 352224 at time 9762
Reenqueueing errored packet 311752 at time 9766
Additional hops: 15295
Adding flit 353764 as NACK at time 9769
Reenqueueing errored packet 353764 at time 9778
Additional hops: 15302
Adding flit 349461 as NACK at time 9786
Additional hops: 15306
Adding flit 357928 as NACK at time 9787
Additional hops: 15313
Adding flit 177667 as NACK at time 9796
Additional hops: 15323
Adding flit 320500 as NACK at time 9800
Additional hops: 15333
Adding flit 346948 as NACK at time 9801
Additional hops: 15343
Adding flit 303756 as NACK at time 9804
Additional hops: 15352
Adding flit 243338 as NACK at time 9804
Additional hops: 15358
Adding flit 264589 as NACK at time 9817
Reenqueueing errored packet 320500 at time 9821
Additional hops: 15366
Adding flit 179611 as NACK at time 9822
Additional hops: 15373
Adding flit 357518 as NACK at time 9823
Reenqueueing errored packet 303756 at time 9825
Additional hops: 15383
Adding flit 343573 as NACK at time 9828
Additional hops: 15394
Adding flit 176876 as NACK at time 9832
Additional hops: 15397
Adding flit 273062 as NACK at time 9832
Additional hops: 15404
Adding flit 338942 as NACK at time 9836
Reenqueueing errored packet 357518 at time 9838
Additional hops: 15412
Adding flit 333414 as NACK at time 9838
Additional hops: 15422
Adding flit 180740 as NACK at time 9842
Reenqueueing errored packet 338942 at time 9851
Reenqueueing errored packet 333414 at time 9855
Reenqueueing errored packet 176876 at time 9855
Additional hops: 15428
Adding flit 336996 as NACK at time 9855
Additional hops: 15439
Adding flit 235365 as NACK at time 9859
Additional hops: 15449
Adding flit 245576 as NACK at time 9865
Reenqueueing errored packet 336996 at time 9868
Additional hops: 15454
Adding flit 343254 as NACK at time 9871
Additional hops: 15460
Adding flit 352362 as NACK at time 9876
Reenqueueing errored packet 343254 at time 9882
Additional hops: 15466
Adding flit 218584 as NACK at time 9895
Additional hops: 15475
Adding flit 337870 as NACK at time 9896
Additional hops: 15489
Adding flit 231258 as NACK at time 9907
Additional hops: 15495
Adding flit 338203 as NACK at time 9912
Reenqueueing errored packet 337870 at time 9915
Additional hops: 15501
Adding flit 355634 as NACK at time 9919
Additional hops: 15510
Adding flit 269669 as NACK at time 9924
Reenqueueing errored packet 338203 at time 9925
Additional hops: 15516
Adding flit 277082 as NACK at time 9931
Reenqueueing errored packet 355634 at time 9932
Reenqueueing errored packet 231258 at time 9936
Additional hops: 15526
Adding flit 303224 as NACK at time 9936
Additional hops: 15534
Adding flit 306429 as NACK at time 9941
Reenqueueing errored packet 269669 at time 9943
Additional hops: 15548
Adding flit 221500 as NACK at time 9953
Reenqueueing errored packet 303224 at time 9957
Additional hops: 15549
Adding flit 372653 as NACK at time 9959
Additional hops: 15557
Adding flit 319145 as NACK at time 9961
Additional hops: 15566
Adding flit 310368 as NACK at time 9964
Additional hops: 15575
Adding flit 307074 as NACK at time 9975
Reenqueueing errored packet 319145 at time 9978
Additional hops: 15581
Adding flit 328943 as NACK at time 9981
Reenqueueing errored packet 310368 at time 9983
Additional hops: 15589
Adding flit 346166 as NACK at time 9983
Additional hops: 15596
Adding flit 362194 as NACK at time 9987
Additional hops: 15606
Adding flit 352876 as NACK at time 9995
Additional hops: 15613
Adding flit 264428 as NACK at time 9997
Class 0:
Packet latency average = 1750.4
	minimum = 5
	maximum = 8609
Network latency average = 1488.11
	minimum = 5
	maximum = 6920
Slowest packet = 7349
Flit latency average = 1488.11
	minimum = 5
	maximum = 6920
Slowest flit = 165176
Fragmentation average = 0
	minimum = 0
	maximum = 0
Injected packet rate average = 0.620281
	minimum = 0.4238 (at node 6)
	maximum = 0.8945 (at node 60)
Accepted packet rate average = 0.501
	minimum = 0.4767 (at node 21)
	maximum = 0.5176 (at node 15)
Injected flit rate average = 0.620281
	minimum = 0.4238 (at node 6)
	maximum = 0.8945 (at node 60)
Accepted flit rate average= 0.501
	minimum = 0.4767 (at node 21)
	maximum = 0.5176 (at node 15)
Injected packet length average = 1
Accepted packet length average = 1
Total in-flight flits = 76990 (0 measured)
latency change    = 1
throughput change = 1
Average latency for class 0 exceeded 500 cycles. Aborting simulation.
Too many sample periods needed to converge
Simulation unstable, ending ...
Total run time 101.275
