BEGIN Configuration File: examples/ecc_mesh88_config_0_0.010_packet_1
// $Id$

// Copyright (c) 2007-2015, Trustees of The Leland Stanford Junior University
// All rights reserved.
//
// Redistribution and use in source and binary forms, with or without
// modification, are permitted provided that the following conditions are met:
//
// Redistributions of source code must retain the above copyright notice, this
// list of conditions and the following disclaimer.
// Redistributions in binary form must reproduce the above copyright notice,
// this list of conditions and the following disclaimer in the documentation
// and/or other materials provided with the distribution.
//
// THIS SOFTWARE IS PROVIDED BY THE COPYRIGHT HOLDERS AND CONTRIBUTORS "AS IS"
// AND ANY EXPRESS OR IMPLIED WARRANTIES, INCLUDING, BUT NOT LIMITED TO, THE
// IMPLIED WARRANTIES OF MERCHANTABILITY AND FITNESS FOR A PARTICULAR PURPOSE
// ARE DISCLAIMED. IN NO EVENT SHALL THE COPYRIGHT OWNER OR CONTRIBUTORS BE
// LIABLE FOR ANY DIRECT, INDIRECT, INCIDENTAL, SPECIAL, EXEMPLARY, OR
// CONSEQUENTIAL DAMAGES (INCLUDING, BUT NOT LIMITED TO, PROCUREMENT OF
// SUBSTITUTE GOODS OR SERVICES; LOSS OF USE, DATA, OR PROFITS; OR BUSINESS
// INTERRUPTION) HOWEVER CAUSED AND ON ANY THEORY OF LIABILITY, WHETHER IN
// CONTRACT, STRICT LIABILITY, OR TORT (INCLUDING NEGLIGENCE OR OTHERWISE)
// ARISING IN ANY WAY OUT OF THE USE OF THIS SOFTWARE, EVEN IF ADVISED OF THE
// POSSIBILITY OF SUCH DAMAGE.

// Dragonfly
//




vc_buf_size = 256;


wait_for_tail_credit = 0;

//
// Router architecture
//
vc_allocator = separable_input_first; 
sw_allocator = separable_input_first;
alloc_iters  = 1;

credit_delay   = 2;
routing_delay  = 0;
vc_alloc_delay = 1;
sw_alloc_delay = 1;
st_final_delay = 1;

input_speedup     = 1;
output_speedup    = 1;
internal_speedup  = 2.0;


warmup_periods = 3;
sim_count          = 1;

sample_period  = 10000;  


routing_function = dor;
num_vcs     = 2;

priority = none;
traffic       = uniform; 

injection_rate = 0.01;
packet_size = 1;
injection_rate_uses_flits=1;

topology = mesh;

k  = 8;
n  = 2;

fer = 1;
ecc = link;
correctable = 0;

watch_out=-;
watch_file = watch.txt;

ecc = packet;

stats_out = examples/ecc_mesh88_config_0_0.010_packet_1.m;

END Configuration File: examples/ecc_mesh88_config_0_0.010_packet_1
Additional hops: 5
Adding flit 0 as NACK at time 20
Uncorrectable 3
Additional hops: 8
Adding flit 9 as NACK at time 23
Additional hops: 13
Adding flit 6 as NACK at time 26
Reenqueueing errored packet 9 at time 30
Additional hops: 21
Adding flit 1 as NACK at time 30
Reenqueueing errored packet 0 at time 31
Additional hops: 24
Adding flit 13 as NACK at time 31
Reenqueueing errored packet 6 at time 37
Reenqueueing errored packet 13 at time 38
Additional hops: 33
Adding flit 7 as NACK at time 38
Additional hops: 39
Adding flit 9 as NACK at time 41
Uncorrectable 3
Additional hops: 51
Adding flit 3 as NACK at time 44
Reenqueueing errored packet 1 at time 47
Additional hops: 58
Adding flit 15 as NACK at time 47
Uncorrectable 3
Additional hops: 64
Adding flit 13 as NACK at time 49
Reenqueueing errored packet 9 at time 54
Additional hops: 69
Adding flit 22 as NACK at time 54
Reenqueueing errored packet 7 at time 57
Reenqueueing errored packet 13 at time 62
Reenqueueing errored packet 15 at time 62
Reenqueueing errored packet 22 at time 65
Additional hops: 78
Adding flit 9 as NACK at time 65
Additional hops: 81
Adding flit 28 as NACK at time 66
Reenqueueing errored packet 3 at time 69
Reenqueueing errored packet 28 at time 73
Additional hops: 90
Adding flit 13 as NACK at time 73
Additional hops: 93
Adding flit 30 as NACK at time 74
Additional hops: 109
Adding flit 1 as NACK at time 74
Additional hops: 113
Adding flit 31 as NACK at time 77
Additional hops: 122
Adding flit 25 as NACK at time 79
Additional hops: 125
Adding flit 36 as NACK at time 80
Reenqueueing errored packet 30 at time 81
Additional hops: 129
Adding flit 34 as NACK at time 82
Additional hops: 132
Adding flit 39 as NACK at time 83
Reenqueueing errored packet 9 at time 84
Additional hops: 146
Adding flit 15 as NACK at time 85
Reenqueueing errored packet 31 at time 86
Additional hops: 149
Adding flit 40 as NACK at time 86
Reenqueueing errored packet 36 at time 87
Reenqueueing errored packet 39 at time 90
Reenqueueing errored packet 34 at time 91
Reenqueueing errored packet 13 at time 92
Reenqueueing errored packet 40 at time 93
Reenqueueing errored packet 25 at time 98
Additional hops: 155
Adding flit 36 as NACK at time 98
Additional hops: 165
Adding flit 33 as NACK at time 99
Additional hops: 171
Adding flit 40 as NACK at time 104
Uncorrectable 4
Additional hops: 179
Adding flit 41 as NACK at time 104
Additional hops: 187
Adding flit 34 as NACK at time 105
Uncorrectable 4
Additional hops: 198
Adding flit 38 as NACK at time 106
Reenqueueing errored packet 1 at time 107
Additional hops: 204
Adding flit 49 as NACK at time 107
Additional hops: 228
Adding flit 3 as NACK at time 107
Uncorrectable 3
Additional hops: 236
Adding flit 46 as NACK at time 109
Uncorrectable 3
Additional hops: 246
Adding flit 42 as NACK at time 110
Additional hops: 251
Adding flit 53 as NACK at time 110
Reenqueueing errored packet 36 at time 111
Additional hops: 257
Adding flit 52 as NACK at time 111
Additional hops: 261
Adding flit 58 as NACK at time 112
Reenqueueing errored packet 15 at time 114
Additional hops: 266
Adding flit 55 as NACK at time 114
Additional hops: 274
Adding flit 50 as NACK at time 115
Additional hops: 279
Adding flit 60 as NACK at time 116
Additional hops: 284
Adding flit 59 as NACK at time 116
Reenqueueing errored packet 40 at time 117
Uncorrectable 3
Additional hops: 288
Adding flit 64 as NACK at time 117
Additional hops: 293
Adding flit 62 as NACK at time 117
Reenqueueing errored packet 49 at time 120
Reenqueueing errored packet 33 at time 120
Reenqueueing errored packet 58 at time 121
Reenqueueing errored packet 53 at time 121
Reenqueueing errored packet 41 at time 121
Additional hops: 299
Adding flit 63 as NACK at time 121
Additional hops: 312
Adding flit 44 as NACK at time 121
Reenqueueing errored packet 34 at time 122
Uncorrectable 4
Additional hops: 315
Adding flit 71 as NACK at time 122
Additional hops: 324
Adding flit 36 as NACK at time 122
Reenqueueing errored packet 52 at time 124
Uncorrectable 3
Additional hops: 330
Adding flit 66 as NACK at time 124
Reenqueueing errored packet 55 at time 125
Reenqueueing errored packet 64 at time 126
Reenqueueing errored packet 46 at time 126
Reenqueueing errored packet 59 at time 127
Reenqueueing errored packet 60 at time 127
Uncorrectable 3
Additional hops: 348
Adding flit 25 as NACK at time 127
Reenqueueing errored packet 62 at time 128
Reenqueueing errored packet 71 at time 129
Reenqueueing errored packet 38 at time 129
Additional hops: 358
Adding flit 57 as NACK at time 129
Additional hops: 364
Adding flit 69 as NACK at time 129
Additional hops: 370
Adding flit 70 as NACK at time 130
Reenqueueing errored packet 42 at time 131
Uncorrectable 3
Additional hops: 376
Adding flit 72 as NACK at time 131
Reenqueueing errored packet 50 at time 132
Additional hops: 381
Adding flit 73 as NACK at time 132
Additional hops: 390
Adding flit 65 as NACK at time 132
Additional hops: 414
Adding flit 1 as NACK at time 133
Reenqueueing errored packet 63 at time 134
Uncorrectable 3
Additional hops: 422
Adding flit 58 as NACK at time 135
Reenqueueing errored packet 66 at time 137
Additional hops: 443
Adding flit 15 as NACK at time 137
Additional hops: 448
Adding flit 78 as NACK at time 139
Reenqueueing errored packet 36 at time 141
Reenqueueing errored packet 69 at time 142
Additional hops: 458
Adding flit 55 as NACK at time 142
Reenqueueing errored packet 73 at time 143
Reenqueueing errored packet 70 at time 143
Reenqueueing errored packet 72 at time 144
Additional hops: 470
Adding flit 52 as NACK at time 144
Additional hops: 478
Adding flit 74 as NACK at time 144
Additional hops: 488
Adding flit 62 as NACK at time 145
Reenqueueing errored packet 44 at time 148
Reenqueueing errored packet 78 at time 150
Reenqueueing errored packet 57 at time 150
Reenqueueing errored packet 65 at time 151
Reenqueueing errored packet 58 at time 152
Additional hops: 508
Adding flit 33 as NACK at time 152
Additional hops: 520
Adding flit 36 as NACK at time 152
Additional hops: 532
Adding flit 63 as NACK at time 154
Reenqueueing errored packet 3 at time 156
Additional hops: 540
Adding flit 80 as NACK at time 156
Additional hops: 547
Adding flit 81 as NACK at time 156
Additional hops: 551
Adding flit 89 as NACK at time 157
Additional hops: 557
Adding flit 84 as NACK at time 158
Additional hops: 569
Adding flit 66 as NACK at time 158
Additional hops: 585
Adding flit 50 as NACK at time 158
Reenqueueing errored packet 74 at time 161
Additional hops: 597
Adding flit 69 as NACK at time 162
Reenqueueing errored packet 55 at time 163
Additional hops: 609
Adding flit 70 as NACK at time 163
Reenqueueing errored packet 25 at time 164
Additional hops: 621
Adding flit 72 as NACK at time 164
Additional hops: 643
Adding flit 38 as NACK at time 164
Additional hops: 650
Adding flit 88 as NACK at time 165
Reenqueueing errored packet 89 at time 166
Reenqueueing errored packet 62 at time 166
Additional hops: 662
Adding flit 58 as NACK at time 166
Uncorrectable 3
Additional hops: 672
Adding flit 78 as NACK at time 167
Reenqueueing errored packet 52 at time 169
Reenqueueing errored packet 84 at time 171
Reenqueueing errored packet 81 at time 171
Reenqueueing errored packet 80 at time 173
Additional hops: 678
Adding flit 92 as NACK at time 173
Additional hops: 682
Adding flit 95 as NACK at time 173
Additional hops: 692
Adding flit 87 as NACK at time 173
Additional hops: 703
Adding flit 85 as NACK at time 174
Additional hops: 707
Adding flit 99 as NACK at time 175
Reenqueueing errored packet 36 at time 177
Reenqueueing errored packet 63 at time 179
Reenqueueing errored packet 88 at time 180
Reenqueueing errored packet 15 at time 180
Additional hops: 725
Adding flit 65 as NACK at time 180
Reenqueueing errored packet 95 at time 182
Reenqueueing errored packet 1 at time 182
Additional hops: 728
Adding flit 103 as NACK at time 182
Reenqueueing errored packet 66 at time 183
Reenqueueing errored packet 99 at time 184
Reenqueueing errored packet 92 at time 186
Reenqueueing errored packet 69 at time 187
Reenqueueing errored packet 78 at time 188
Reenqueueing errored packet 70 at time 188
Additional hops: 734
Adding flit 102 as NACK at time 188
Reenqueueing errored packet 103 at time 189
Reenqueueing errored packet 72 at time 189
Additional hops: 760
Adding flit 44 as NACK at time 189
Reenqueueing errored packet 58 at time 191
Reenqueueing errored packet 50 at time 191
Reenqueueing errored packet 33 at time 193
Additional hops: 787
Adding flit 25 as NACK at time 193
Reenqueueing errored packet 87 at time 194
Uncorrectable 3
Additional hops: 823
Adding flit 3 as NACK at time 194
Reenqueueing errored packet 85 at time 197
Additional hops: 829
Adding flit 109 as NACK at time 197
Additional hops: 847
Adding flit 63 as NACK at time 199
Additional hops: 863
Adding flit 80 as NACK at time 199
Additional hops: 869
Adding flit 103 as NACK at time 200
Reenqueueing errored packet 102 at time 201
Additional hops: 875
Adding flit 114 as NACK at time 202
Additional hops: 885
Adding flit 104 as NACK at time 203
Additional hops: 913
Adding flit 15 as NACK at time 203
Additional hops: 931
Adding flit 66 as NACK at time 203
Additional hops: 937
Adding flit 115 as NACK at time 204
Additional hops: 946
Adding flit 108 as NACK at time 204
Additional hops: 959
Adding flit 100 as NACK at time 205
Additional hops: 974
Adding flit 78 as NACK at time 205
Additional hops: 982
Adding flit 110 as NACK at time 205
Additional hops: 998
Adding flit 58 as NACK at time 205
Additional hops: 1010
Adding flit 92 as NACK at time 206
Additional hops: 1023
Adding flit 101 as NACK at time 208
Reenqueueing errored packet 38 at time 209
Reenqueueing errored packet 109 at time 210
Additional hops: 1036
Adding flit 105 as NACK at time 212
Reenqueueing errored packet 103 at time 213
Reenqueueing errored packet 114 at time 215
Additional hops: 1041
Adding flit 124 as NACK at time 215
Additional hops: 1044
Adding flit 127 as NACK at time 215
Additional hops: 1055
Adding flit 113 as NACK at time 216
Reenqueueing errored packet 115 at time 217
Reenqueueing errored packet 65 at time 217
Additional hops: 1079
Adding flit 50 as NACK at time 217
Additional hops: 1086
Adding flit 121 as NACK at time 217
Additional hops: 1093
Adding flit 123 as NACK at time 221
Additional hops: 1103
Adding flit 118 as NACK at time 221
Reenqueueing errored packet 127 at time 222
Reenqueueing errored packet 110 at time 222
Reenqueueing errored packet 108 at time 223
Reenqueueing errored packet 104 at time 224
Additional hops: 1133
Adding flit 33 as NACK at time 225
Reenqueueing errored packet 124 at time 226
Additional hops: 1141
Adding flit 126 as NACK at time 226
Uncorrectable 4
Additional hops: 1153
Adding flit 120 as NACK at time 230
Additional hops: 1165
Adding flit 109 as NACK at time 230
Reenqueueing errored packet 92 at time 231
Additional hops: 1175
Adding flit 125 as NACK at time 231
Additional hops: 1182
Adding flit 128 as NACK at time 231
Reenqueueing errored packet 121 at time 232
Reenqueueing errored packet 100 at time 232
Reenqueueing errored packet 80 at time 232
Reenqueueing errored packet 101 at time 235
Reenqueueing errored packet 123 at time 236
Reenqueueing errored packet 78 at time 236
Reenqueueing errored packet 63 at time 236
Reenqueueing errored packet 58 at time 238
Additional hops: 1189
Adding flit 131 as NACK at time 238
Reenqueueing errored packet 113 at time 239
Reenqueueing errored packet 105 at time 239
Additional hops: 1195
Adding flit 134 as NACK at time 239
Reenqueueing errored packet 66 at time 240
Additional hops: 1202
Adding flit 133 as NACK at time 241
Reenqueueing errored packet 118 at time 242
Reenqueueing errored packet 44 at time 242
Reenqueueing errored packet 126 at time 243
Uncorrectable 3
Additional hops: 1212
Adding flit 130 as NACK at time 243
Additional hops: 1245
Adding flit 38 as NACK at time 245
Reenqueueing errored packet 128 at time 246
Reenqueueing errored packet 25 at time 248
Additional hops: 1252
Adding flit 136 as NACK at time 248
Additional hops: 1270
Adding flit 92 as NACK at time 251
Reenqueueing errored packet 134 at time 252
Reenqueueing errored packet 125 at time 252
Additional hops: 1288
Adding flit 108 as NACK at time 252
Reenqueueing errored packet 131 at time 253
Additional hops: 1308
Adding flit 78 as NACK at time 253
Additional hops: 1312
Adding flit 146 as NACK at time 254
Reenqueueing errored packet 109 at time 255
Reenqueueing errored packet 120 at time 255
Additional hops: 1322
Adding flit 135 as NACK at time 255
Additional hops: 1336
Adding flit 121 as NACK at time 255
Reenqueueing errored packet 133 at time 256
Additional hops: 1360
Adding flit 63 as NACK at time 256
Additional hops: 1380
Adding flit 104 as NACK at time 256
Additional hops: 1394
Adding flit 123 as NACK at time 259
Reenqueueing errored packet 15 at time 260
Additional hops: 1401
Adding flit 142 as NACK at time 261
Additional hops: 1407
Adding flit 147 as NACK at time 262
Reenqueueing errored packet 146 at time 263
Reenqueueing errored packet 136 at time 263
Reenqueueing errored packet 130 at time 264
Reenqueueing errored packet 50 at time 266
Reenqueueing errored packet 3 at time 267
Additional hops: 1423
Adding flit 126 as NACK at time 269
Additional hops: 1437
Adding flit 128 as NACK at time 269
Additional hops: 1463
Adding flit 100 as NACK at time 273
Reenqueueing errored packet 147 at time 275
Additional hops: 1481
Adding flit 109 as NACK at time 275
Reenqueueing errored packet 142 at time 276
Reenqueueing errored packet 135 at time 276
Additional hops: 1495
Adding flit 131 as NACK at time 276
Uncorrectable 3
Additional hops: 1521
Adding flit 101 as NACK at time 276
Additional hops: 1528
Adding flit 151 as NACK at time 276
Additional hops: 1564
Adding flit 25 as NACK at time 277
Additional hops: 1590
Adding flit 105 as NACK at time 280
Additional hops: 1597
Adding flit 153 as NACK at time 281
Additional hops: 1636
Adding flit 44 as NACK at time 283
Additional hops: 1671
Adding flit 15 as NACK at time 283
Reenqueueing errored packet 121 at time 284
Uncorrectable 5
Additional hops: 1683
Adding flit 149 as NACK at time 285
Reenqueueing errored packet 33 at time 286
Uncorrectable 3
Additional hops: 1697
Adding flit 136 as NACK at time 286
Reenqueueing errored packet 123 at time 288
Reenqueueing errored packet 92 at time 288
Reenqueueing errored packet 108 at time 289
Additional hops: 1706
Adding flit 154 as NACK at time 290
Reenqueueing errored packet 151 at time 291
Reenqueueing errored packet 78 at time 294
Additional hops: 1718
Adding flit 147 as NACK at time 295
Reenqueueing errored packet 153 at time 296
Additional hops: 1738
Adding flit 130 as NACK at time 296
Reenqueueing errored packet 104 at time 297
Reenqueueing errored packet 128 at time 298
Additional hops: 1752
Adding flit 142 as NACK at time 299
Reenqueueing errored packet 126 at time 302
Reenqueueing errored packet 131 at time 305
Reenqueueing errored packet 63 at time 305
Additional hops: 1800
Adding flit 3 as NACK at time 305
Additional hops: 1821
Adding flit 121 as NACK at time 307
Additional hops: 1841
Adding flit 135 as NACK at time 308
Additional hops: 1849
Adding flit 159 as NACK at time 308
Reenqueueing errored packet 154 at time 309
Additional hops: 1873
Adding flit 92 as NACK at time 309
Reenqueueing errored packet 149 at time 310
Additional hops: 1894
Adding flit 123 as NACK at time 311
Reenqueueing errored packet 109 at time 312
Reenqueueing errored packet 38 at time 312
Additional hops: 1908
Adding flit 151 as NACK at time 314
Reenqueueing errored packet 136 at time 315
Additional hops: 1914
Adding flit 169 as NACK at time 315
Additional hops: 1922
Adding flit 163 as NACK at time 315
Additional hops: 1949
Adding flit 108 as NACK at time 318
Additional hops: 1963
Adding flit 153 as NACK at time 319
Reenqueueing errored packet 147 at time 320
Additional hops: 1972
Adding flit 165 as NACK at time 321
Additional hops: 1993
Adding flit 128 as NACK at time 321
Additional hops: 1999
Adding flit 176 as NACK at time 324
Reenqueueing errored packet 159 at time 325
Reenqueueing errored packet 100 at time 326
Reenqueueing errored packet 169 at time 328
Reenqueueing errored packet 142 at time 328
Additional hops: 2020
Adding flit 131 as NACK at time 328
Additional hops: 2028
Adding flit 174 as NACK at time 328
Reenqueueing errored packet 101 at time 329
Additional hops: 2058
Adding flit 104 as NACK at time 329
Additional hops: 2062
Adding flit 183 as NACK at time 331
Reenqueueing errored packet 163 at time 332
Reenqueueing errored packet 105 at time 333
Additional hops: 2076
Adding flit 162 as NACK at time 333
Uncorrectable 3
Additional hops: 2082
Adding flit 182 as NACK at time 336
Additional hops: 2087
Adding flit 185 as NACK at time 336
Reenqueueing errored packet 176 at time 337
Reenqueueing errored packet 130 at time 337
Additional hops: 2094
Adding flit 181 as NACK at time 337
Additional hops: 2100
Adding flit 184 as NACK at time 338
Additional hops: 2118
Adding flit 154 as NACK at time 338
Reenqueueing errored packet 183 at time 340
Reenqueueing errored packet 165 at time 340
Uncorrectable 3
Additional hops: 2128
Adding flit 177 as NACK at time 340
Additional hops: 2133
Adding flit 189 as NACK at time 340
Additional hops: 2139
Adding flit 187 as NACK at time 341
Additional hops: 2149
Adding flit 178 as NACK at time 342
Reenqueueing errored packet 151 at time 343
Additional hops: 2151
Adding flit 199 as NACK at time 343
Reenqueueing errored packet 174 at time 345
Reenqueueing errored packet 185 at time 347
Additional hops: 2156
Adding flit 194 as NACK at time 347
Additional hops: 2200
Adding flit 38 as NACK at time 347
Reenqueueing errored packet 199 at time 348
Reenqueueing errored packet 153 at time 348
Uncorrectable 7
Additional hops: 2224
Adding flit 149 as NACK at time 348
Reenqueueing errored packet 182 at time 349
Reenqueueing errored packet 135 at time 349
Reenqueueing errored packet 121 at time 350
Reenqueueing errored packet 25 at time 350
Reenqueueing errored packet 189 at time 351
Reenqueueing errored packet 184 at time 351
Uncorrectable 4
Additional hops: 2240
Adding flit 159 as NACK at time 351
Additional hops: 2261
Adding flit 142 as NACK at time 351
Reenqueueing errored packet 181 at time 352
Additional hops: 2265
Adding flit 204 as NACK at time 352
Additional hops: 2271
Adding flit 197 as NACK at time 353
Reenqueueing errored packet 187 at time 354
Reenqueueing errored packet 123 at time 354
Reenqueueing errored packet 15 at time 354
Additional hops: 2279
Adding flit 183 as NACK at time 354
Additional hops: 2291
Adding flit 176 as NACK at time 357
Additional hops: 2299
Adding flit 196 as NACK at time 357
Reenqueueing errored packet 194 at time 358
Reenqueueing errored packet 92 at time 358
Reenqueueing errored packet 204 at time 361
Reenqueueing errored packet 177 at time 361
Reenqueueing errored packet 162 at time 362
Reenqueueing errored packet 44 at time 362
Reenqueueing errored packet 178 at time 363
Reenqueueing errored packet 128 at time 364
Additional hops: 2306
Adding flit 207 as NACK at time 364
Additional hops: 2315
Adding flit 201 as NACK at time 365
Reenqueueing errored packet 197 at time 366
Additional hops: 2336
Adding flit 151 as NACK at time 366
Additional hops: 2375
Adding flit 100 as NACK at time 367
Uncorrectable 3
Additional hops: 2385
Adding flit 200 as NACK at time 368
Additional hops: 2397
Adding flit 182 as NACK at time 369
Additional hops: 2427
Adding flit 130 as NACK at time 369
Additional hops: 2445
Adding flit 165 as NACK at time 369
Reenqueueing errored packet 183 at time 371
Reenqueueing errored packet 131 at time 371
Additional hops: 2457
Adding flit 184 as NACK at time 371
Additional hops: 2463
Adding flit 214 as NACK at time 371
Additional hops: 2479
Adding flit 174 as NACK at time 371
Additional hops: 2486
Adding flit 211 as NACK at time 372
Reenqueueing errored packet 108 at time 373
Additional hops: 2514
Adding flit 121 as NACK at time 373
Reenqueueing errored packet 196 at time 374
Additional hops: 2553
Adding flit 105 as NACK at time 374
Additional hops: 2565
Adding flit 187 as NACK at time 374
Reenqueueing errored packet 154 at time 375
Additional hops: 2607
Adding flit 15 as NACK at time 377
Additional hops: 2635
Adding flit 123 as NACK at time 377
Additional hops: 2641
Adding flit 219 as NACK at time 378
Additional hops: 2671
Adding flit 92 as NACK at time 378
Reenqueueing errored packet 207 at time 379
Additional hops: 2675
Adding flit 222 as NACK at time 380
Additional hops: 2683
Adding flit 216 as NACK at time 380
Additional hops: 2713
Adding flit 135 as NACK at time 381
Uncorrectable 3
Additional hops: 2721
Adding flit 218 as NACK at time 381
Reenqueueing errored packet 176 at time 382
Reenqueueing errored packet 214 at time 384
Reenqueueing errored packet 201 at time 384
Reenqueueing errored packet 159 at time 384
Additional hops: 2733
Adding flit 183 as NACK at time 385
Additional hops: 2735
Adding flit 226 as NACK at time 386
Additional hops: 2747
Adding flit 197 as NACK at time 386
Reenqueueing errored packet 211 at time 387
Reenqueueing errored packet 222 at time 389
Reenqueueing errored packet 200 at time 389
Reenqueueing errored packet 104 at time 390
Additional hops: 2758
Adding flit 217 as NACK at time 390
Reenqueueing errored packet 226 at time 391
Reenqueueing errored packet 219 at time 391
Uncorrectable 3
Additional hops: 2778
Adding flit 177 as NACK at time 393
Reenqueueing errored packet 182 at time 394
Reenqueueing errored packet 142 at time 394
Additional hops: 2806
Adding flit 131 as NACK at time 394
Additional hops: 2826
Adding flit 178 as NACK at time 395
Reenqueueing errored packet 184 at time 396
Reenqueueing errored packet 216 at time 397
Reenqueueing errored packet 218 at time 398
Reenqueueing errored packet 187 at time 399
Additional hops: 2830
Adding flit 226 as NACK at time 399
Reenqueueing errored packet 3 at time 402
Uncorrectable 3
Additional hops: 2844
Adding flit 207 as NACK at time 402
Additional hops: 2880
Adding flit 108 as NACK at time 402
Additional hops: 2932
Adding flit 44 as NACK at time 403
Reenqueueing errored packet 174 at time 404
Additional hops: 2959
Adding flit 154 as NACK at time 404
Additional hops: 2971
Adding flit 214 as NACK at time 404
Additional hops: 2977
Adding flit 230 as NACK at time 404
Reenqueueing errored packet 165 at time 406
Additional hops: 3005
Adding flit 162 as NACK at time 407
Reenqueueing errored packet 226 at time 408
Additional hops: 3012
Adding flit 231 as NACK at time 408
Additional hops: 3018
Adding flit 232 as NACK at time 408
Reenqueueing errored packet 151 at time 409
Reenqueueing errored packet 183 at time 410
Additional hops: 3042
Adding flit 159 as NACK at time 410
Additional hops: 3056
Adding flit 211 as NACK at time 410
Reenqueueing errored packet 197 at time 411
Uncorrectable 3
Additional hops: 3068
Adding flit 219 as NACK at time 411
Reenqueueing errored packet 217 at time 413
Additional hops: 3074
Adding flit 226 as NACK at time 416
Reenqueueing errored packet 230 at time 417
Uncorrectable 3
Additional hops: 3080
Adding flit 236 as NACK at time 417
Additional hops: 3108
Adding flit 142 as NACK at time 417
Additional hops: 3115
Adding flit 237 as NACK at time 420
Additional hops: 3121
Adding flit 241 as NACK at time 420
Reenqueueing errored packet 232 at time 421
Additional hops: 3141
Adding flit 200 as NACK at time 421
Uncorrectable 5
Additional hops: 3181
Adding flit 104 as NACK at time 422
Reenqueueing errored packet 231 at time 423
Additional hops: 3197
Adding flit 183 as NACK at time 424
Additional hops: 3203
Adding flit 242 as NACK at time 424
Additional hops: 3219
Adding flit 218 as NACK at time 424
Reenqueueing errored packet 226 at time 429
Reenqueueing errored packet 214 at time 429
Reenqueueing errored packet 236 at time 430
Reenqueueing errored packet 121 at time 430
Reenqueueing errored packet 130 at time 430
Additional hops: 3243
Adding flit 174 as NACK at time 430
Reenqueueing errored packet 207 at time 431
Additional hops: 3261
Adding flit 197 as NACK at time 431
Additional hops: 3289
Adding flit 151 as NACK at time 432
Reenqueueing errored packet 241 at time 433
Reenqueueing errored packet 177 at time 434
Reenqueueing errored packet 123 at time 434
Reenqueueing errored packet 237 at time 435
Reenqueueing errored packet 219 at time 436
Reenqueueing errored packet 178 at time 436
Reenqueueing errored packet 38 at time 436
Reenqueueing errored packet 242 at time 437
Additional hops: 3297
Adding flit 226 as NACK at time 437
Reenqueueing errored packet 211 at time 439
Reenqueueing errored packet 92 at time 439
Additional hops: 3306
Adding flit 243 as NACK at time 440
Additional hops: 3318
Adding flit 232 as NACK at time 441
Reenqueueing errored packet 135 at time 442
Additional hops: 3324
Adding flit 251 as NACK at time 442
Additional hops: 3331
Adding flit 252 as NACK at time 445
Reenqueueing errored packet 100 at time 446
Uncorrectable 3
Additional hops: 3345
Adding flit 231 as NACK at time 446
Additional hops: 3363
Adding flit 214 as NACK at time 449
Additional hops: 3371
Adding flit 254 as NACK at time 450
Reenqueueing errored packet 131 at time 451
Additional hops: 3379
Adding flit 255 as NACK at time 452
Reenqueueing errored packet 105 at time 453
Additional hops: 3382
Adding flit 259 as NACK at time 453
Additional hops: 3394
Adding flit 241 as NACK at time 453
Additional hops: 3405
Adding flit 248 as NACK at time 453
Reenqueueing errored packet 226 at time 454
Additional hops: 3440
Adding flit 121 as NACK at time 454
Reenqueueing errored packet 251 at time 455
Reenqueueing errored packet 218 at time 457
Reenqueueing errored packet 183 at time 457
Additional hops: 3454
Adding flit 237 as NACK at time 458
Reenqueueing errored packet 243 at time 459
Reenqueueing errored packet 159 at time 459
Reenqueueing errored packet 154 at time 459
Additional hops: 3490
Adding flit 92 as NACK at time 459
Reenqueueing errored packet 259 at time 460
Reenqueueing errored packet 252 at time 460
Additional hops: 3495
Adding flit 260 as NACK at time 460
Reenqueueing errored packet 200 at time 462
Reenqueueing errored packet 15 at time 462
Additional hops: 3535
Adding flit 130 as NACK at time 462
Additional hops: 3556
Adding flit 211 as NACK at time 462
Reenqueueing errored packet 162 at time 464
Reenqueueing errored packet 232 at time 466
Additional hops: 3586
Adding flit 177 as NACK at time 466
Reenqueueing errored packet 254 at time 467
Additional hops: 3589
Adding flit 268 as NACK at time 467
Reenqueueing errored packet 197 at time 468
Additional hops: 3619
Adding flit 178 as NACK at time 468
Reenqueueing errored packet 255 at time 469
Reenqueueing errored packet 260 at time 471
Additional hops: 3639
Adding flit 183 as NACK at time 471
Additional hops: 3694
Adding flit 38 as NACK at time 471
Uncorrectable 3
Additional hops: 3700
Adding flit 259 as NACK at time 472
Additional hops: 3707
Adding flit 264 as NACK at time 472
Reenqueueing errored packet 268 at time 474
Reenqueueing errored packet 142 at time 474
Uncorrectable 3
Additional hops: 3747
Adding flit 135 as NACK at time 474
Reenqueueing errored packet 231 at time 475
Reenqueueing errored packet 108 at time 475
Additional hops: 3759
Adding flit 251 as NACK at time 475
Reenqueueing errored packet 248 at time 476
Additional hops: 3770
Adding flit 258 as NACK at time 476
Reenqueueing errored packet 241 at time 478
Reenqueueing errored packet 174 at time 479
Additional hops: 3784
Adding flit 252 as NACK at time 483
Additional hops: 3795
Adding flit 263 as NACK at time 483
Reenqueueing errored packet 259 at time 485
Uncorrectable 3
Additional hops: 3827
Adding flit 159 as NACK at time 485
Reenqueueing errored packet 214 at time 486
Reenqueueing errored packet 264 at time 487
Reenqueueing errored packet 237 at time 487
Additional hops: 3851
Adding flit 197 as NACK at time 488
Uncorrectable 4
Additional hops: 3887
Adding flit 154 as NACK at time 488
Additional hops: 3890
Adding flit 280 as NACK at time 488
Uncorrectable 3
Additional hops: 3908
Adding flit 243 as NACK at time 488
Reenqueueing errored packet 151 at time 489
Additional hops: 3916
Adding flit 275 as NACK at time 492
Uncorrectable 3
Additional hops: 3932
Adding flit 254 as NACK at time 493
Uncorrectable 4
Additional hops: 3984
Adding flit 105 as NACK at time 494
Additional hops: 3990
Adding flit 278 as NACK at time 494
Reenqueueing errored packet 280 at time 495
Additional hops: 3997
Adding flit 277 as NACK at time 496
Additional hops: 4032
Adding flit 142 as NACK at time 497
Additional hops: 4053
Adding flit 231 as NACK at time 498
Reenqueueing errored packet 258 at time 499
Reenqueueing errored packet 251 at time 500
Additional hops: 4064
Adding flit 274 as NACK at time 500
Reenqueueing errored packet 104 at time 503
Reenqueueing errored packet 211 at time 505
Additional hops: 4096
Adding flit 174 as NACK at time 505
Reenqueueing errored packet 263 at time 506
Additional hops: 4100
Adding flit 286 as NACK at time 506
Uncorrectable 3
Additional hops: 4106
Adding flit 280 as NACK at time 506
Reenqueueing errored packet 278 at time 507
Reenqueueing errored packet 44 at time 508
Additional hops: 4111
Adding flit 285 as NACK at time 508
Reenqueueing errored packet 275 at time 509
Additional hops: 4118
Adding flit 283 as NACK at time 509
Additional hops: 4139
Adding flit 237 as NACK at time 510
Additional hops: 4153
Adding flit 264 as NACK at time 510
Reenqueueing errored packet 277 at time 511
Additional hops: 4175
Adding flit 248 as NACK at time 511
Reenqueueing errored packet 252 at time 512
Reenqueueing errored packet 183 at time 512
Uncorrectable 3
Additional hops: 4210
Adding flit 151 as NACK at time 512
Reenqueueing errored packet 286 at time 515
Uncorrectable 3
Additional hops: 4218
Adding flit 284 as NACK at time 515
Reenqueueing errored packet 285 at time 519
Reenqueueing errored packet 280 at time 519
Additional hops: 4224
Adding flit 292 as NACK at time 522
Reenqueueing errored packet 274 at time 523
Additional hops: 4232
Adding flit 289 as NACK at time 523
Reenqueueing errored packet 283 at time 524
Reenqueueing errored packet 243 at time 525
Reenqueueing errored packet 121 at time 525
Reenqueueing errored packet 254 at time 526
Additional hops: 4256
Adding flit 183 as NACK at time 526
Reenqueueing errored packet 177 at time 527
Additional hops: 4268
Adding flit 278 as NACK at time 527
Additional hops: 4296
Adding flit 211 as NACK at time 528
Reenqueueing errored packet 178 at time 529
Additional hops: 4304
Adding flit 286 as NACK at time 529
Additional hops: 4310
Adding flit 297 as NACK at time 529
Additional hops: 4314
Adding flit 304 as NACK at time 530
Additional hops: 4323
Adding flit 280 as NACK at time 530
Reenqueueing errored packet 284 at time 532
Reenqueueing errored packet 92 at time 532
Additional hops: 4329
Adding flit 300 as NACK at time 533
Additional hops: 4335
Adding flit 301 as NACK at time 534
Additional hops: 4357
Adding flit 258 as NACK at time 534
Reenqueueing errored packet 292 at time 535
Additional hops: 4407
Adding flit 104 as NACK at time 535
Additional hops: 4428
Adding flit 252 as NACK at time 535
Reenqueueing errored packet 197 at time 537
Additional hops: 4434
Adding flit 305 as NACK at time 537
Additional hops: 4439
Adding flit 309 as NACK at time 537
Reenqueueing errored packet 304 at time 539
Reenqueueing errored packet 264 at time 539
Reenqueueing errored packet 289 at time 540
Reenqueueing errored packet 231 at time 541
Uncorrectable 3
Additional hops: 4461
Adding flit 263 as NACK at time 541
Reenqueueing errored packet 297 at time 542
Reenqueueing errored packet 130 at time 543
Additional hops: 4468
Adding flit 310 as NACK at time 544
Additional hops: 4476
Adding flit 307 as NACK at time 544
Reenqueueing errored packet 300 at time 546
Reenqueueing errored packet 286 at time 546
Additional hops: 4480
Adding flit 322 as NACK at time 546
Reenqueueing errored packet 301 at time 547
Reenqueueing errored packet 309 at time 548
Additional hops: 4484
Adding flit 324 as NACK at time 548
Additional hops: 4526
Adding flit 121 as NACK at time 548
Reenqueueing errored packet 280 at time 549
Additional hops: 4591
Adding flit 44 as NACK at time 549
Additional hops: 4598
Adding flit 313 as NACK at time 549
Reenqueueing errored packet 305 at time 550
Reenqueueing errored packet 159 at time 550
Additional hops: 4607
Adding flit 311 as NACK at time 551
Reenqueueing errored packet 278 at time 552
Additional hops: 4631
Adding flit 254 as NACK at time 552
Additional hops: 4673
Adding flit 92 as NACK at time 552
Additional hops: 4680
Adding flit 317 as NACK at time 552
Reenqueueing errored packet 237 at time 553
Additional hops: 4707
Adding flit 243 as NACK at time 554
Reenqueueing errored packet 322 at time 555
Reenqueueing errored packet 135 at time 555
Additional hops: 4719
Adding flit 292 as NACK at time 555
Reenqueueing errored packet 248 at time 556
Reenqueueing errored packet 324 at time 557
Additional hops: 4735
Adding flit 284 as NACK at time 558
Additional hops: 4757
Adding flit 274 as NACK at time 558
Reenqueueing errored packet 310 at time 559
Additional hops: 4797
Adding flit 177 as NACK at time 559
Reenqueueing errored packet 307 at time 561
Reenqueueing errored packet 154 at time 561
Additional hops: 4837
Adding flit 178 as NACK at time 561
Uncorrectable 4
Additional hops: 4845
Adding flit 326 as NACK at time 561
Additional hops: 4855
Adding flit 321 as NACK at time 563
Reenqueueing errored packet 313 at time 564
Uncorrectable 5
Additional hops: 4866
Adding flit 319 as NACK at time 565
Reenqueueing errored packet 317 at time 567
Additional hops: 4877
Adding flit 323 as NACK at time 567
Additional hops: 4880
Adding flit 332 as NACK at time 567
Additional hops: 4892
Adding flit 301 as NACK at time 567
Additional hops: 4897
Adding flit 329 as NACK at time 567
Reenqueueing errored packet 142 at time 568
Additional hops: 4905
Adding flit 322 as NACK at time 569
Reenqueueing errored packet 311 at time 570
Reenqueueing errored packet 174 at time 570
Uncorrectable 3
Additional hops: 4917
Adding flit 305 as NACK at time 570
Additional hops: 4935
Adding flit 278 as NACK at time 572
Additional hops: 4939
Adding flit 337 as NACK at time 572
Reenqueueing errored packet 332 at time 574
Reenqueueing errored packet 183 at time 575
Additional hops: 4989
Adding flit 130 as NACK at time 575
Additional hops: 5017
Adding flit 237 as NACK at time 576
Additional hops: 5023
Adding flit 333 as NACK at time 577
Reenqueueing errored packet 329 at time 578
Reenqueueing errored packet 326 at time 578
Reenqueueing errored packet 252 at time 578
Additional hops: 5029
Adding flit 336 as NACK at time 578
Reenqueueing errored packet 258 at time 579
Reenqueueing errored packet 292 at time 580
Reenqueueing errored packet 337 at time 581
Reenqueueing errored packet 38 at time 582
Additional hops: 5043
Adding flit 310 as NACK at time 582
Reenqueueing errored packet 151 at time 583
Reenqueueing errored packet 321 at time 584
Additional hops: 5051
Adding flit 335 as NACK at time 584
Reenqueueing errored packet 211 at time 585
Reenqueueing errored packet 322 at time 586
Reenqueueing errored packet 263 at time 586
Reenqueueing errored packet 319 at time 588
Additional hops: 5056
Adding flit 346 as NACK at time 588
Additional hops: 5084
Adding flit 183 as NACK at time 589
Additional hops: 5093
Adding flit 339 as NACK at time 589
Reenqueueing errored packet 333 at time 590
Additional hops: 5138
Adding flit 154 as NACK at time 590
Additional hops: 5152
Adding flit 317 as NACK at time 590
Reenqueueing errored packet 336 at time 591
Reenqueueing errored packet 284 at time 591
Additional hops: 5185
Adding flit 248 as NACK at time 591
Additional hops: 5191
Adding flit 347 as NACK at time 591
Reenqueueing errored packet 301 at time 592
Additional hops: 5198
Adding flit 343 as NACK at time 592
Additional hops: 5240
Adding flit 142 as NACK at time 592
Additional hops: 5246
Adding flit 349 as NACK at time 593
Reenqueueing errored packet 305 at time 595
Additional hops: 5256
Adding flit 329 as NACK at time 595
Additional hops: 5264
Adding flit 337 as NACK at time 595
Additional hops: 5304
Adding flit 174 as NACK at time 596
Additional hops: 5313
Adding flit 342 as NACK at time 597
Reenqueueing errored packet 346 at time 599
Reenqueueing errored packet 105 at time 599
Additional hops: 5325
Adding flit 322 as NACK at time 600
Additional hops: 5343
Adding flit 292 as NACK at time 600
Reenqueueing errored packet 335 at time 601
Reenqueueing errored packet 254 at time 601
Reenqueueing errored packet 274 at time 603
Uncorrectable 3
Additional hops: 5352
Adding flit 350 as NACK at time 603
Additional hops: 5360
Adding flit 351 as NACK at time 603
Reenqueueing errored packet 347 at time 604
Additional hops: 5376
Adding flit 326 as NACK at time 604
Additional hops: 5379
Adding flit 361 as NACK at time 605
Uncorrectable 3
Additional hops: 5389
Adding flit 348 as NACK at time 605
Reenqueueing errored packet 349 at time 606
Additional hops: 5431
Adding flit 151 as NACK at time 606
Reenqueueing errored packet 343 at time 607
Reenqueueing errored packet 339 at time 608
Additional hops: 5436
Adding flit 359 as NACK at time 608
Additional hops: 5471
Adding flit 211 as NACK at time 608
Reenqueueing errored packet 278 at time 609
Reenqueueing errored packet 243 at time 609
Uncorrectable 3
Additional hops: 5483
Adding flit 333 as NACK at time 610
Reenqueueing errored packet 310 at time 611
Additional hops: 5495
Adding flit 336 as NACK at time 611
Reenqueueing errored packet 361 at time 612
Reenqueueing errored packet 337 at time 612
Additional hops: 5513
Adding flit 301 as NACK at time 612
Additional hops: 5523
Adding flit 355 as NACK at time 613
Uncorrectable 4
Additional hops: 5556
Adding flit 258 as NACK at time 614
Additional hops: 5574
Adding flit 305 as NACK at time 615
Reenqueueing errored packet 342 at time 616
Reenqueueing errored packet 329 at time 616
Additional hops: 5594
Adding flit 321 as NACK at time 616
Additional hops: 5604
Adding flit 346 as NACK at time 616
Additional hops: 5610
Adding flit 362 as NACK at time 616
Additional hops: 5613
Adding flit 368 as NACK at time 617
Additional hops: 5619
Adding flit 363 as NACK at time 617
Additional hops: 5685
Adding flit 38 as NACK at time 617
Additional hops: 5709
Adding flit 284 as NACK at time 618
Reenqueueing errored packet 359 at time 619
Reenqueueing errored packet 317 at time 619
Additional hops: 5721
Adding flit 354 as NACK at time 619
Reenqueueing errored packet 351 at time 620
Uncorrectable 3
Additional hops: 5728
Adding flit 364 as NACK at time 620
Additional hops: 5731
Adding flit 373 as NACK at time 621
Additional hops: 5764
Adding flit 263 as NACK at time 621
Additional hops: 5770
Adding flit 366 as NACK at time 621
Reenqueueing errored packet 350 at time 622
Additional hops: 5792
Adding flit 319 as NACK at time 623
Reenqueueing errored packet 368 at time 624
Reenqueueing errored packet 322 at time 625
Reenqueueing errored packet 348 at time 626
Additional hops: 5804
Adding flit 349 as NACK at time 626
Additional hops: 5836
Adding flit 254 as NACK at time 627
Additional hops: 5847
Adding flit 360 as NACK at time 627
Reenqueueing errored packet 373 at time 628
Reenqueueing errored packet 362 at time 629
Additional hops: 5871
Adding flit 278 as NACK at time 629
Reenqueueing errored packet 363 at time 630
Additional hops: 5874
Adding flit 381 as NACK at time 630
Reenqueueing errored packet 237 at time 633
Reenqueueing errored packet 121 at time 633
Additional hops: 5889
Adding flit 329 as NACK at time 633
Reenqueueing errored packet 366 at time 634
Reenqueueing errored packet 355 at time 634
Reenqueueing errored packet 364 at time 635
Reenqueueing errored packet 333 at time 635
Additional hops: 5894
Adding flit 380 as NACK at time 635
Reenqueueing errored packet 336 at time 636
Reenqueueing errored packet 104 at time 636
Additional hops: 5904
Adding flit 359 as NACK at time 636
Reenqueueing errored packet 381 at time 637
Reenqueueing errored packet 346 at time 637
Reenqueueing errored packet 326 at time 637
Reenqueueing errored packet 292 at time 637
Reenqueueing errored packet 92 at time 637
Additional hops: 5922
Adding flit 339 as NACK at time 637
Uncorrectable 3
Additional hops: 5958
Adding flit 243 as NACK at time 638
Reenqueueing errored packet 177 at time 640
Additional hops: 6023
Adding flit 105 as NACK at time 640
Additional hops: 6033
Adding flit 372 as NACK at time 640
Additional hops: 6039
Adding flit 373 as NACK at time 641
Reenqueueing errored packet 178 at time 642
Reenqueueing errored packet 354 at time 644
Additional hops: 6045
Adding flit 384 as NACK at time 644
Additional hops: 6063
Adding flit 342 as NACK at time 645
Reenqueueing errored packet 380 at time 646
Reenqueueing errored packet 183 at time 646
Additional hops: 6079
Adding flit 351 as NACK at time 646
Reenqueueing errored packet 301 at time 649
Additional hops: 6085
Adding flit 386 as NACK at time 649
Reenqueueing errored packet 360 at time 650
Reenqueueing errored packet 349 at time 651
Reenqueueing errored packet 305 at time 652
Reenqueueing errored packet 373 at time 654
Additional hops: 6097
Adding flit 366 as NACK at time 654
Reenqueueing errored packet 384 at time 657
Reenqueueing errored packet 359 at time 657
Reenqueueing errored packet 321 at time 657
Reenqueueing errored packet 248 at time 658
Additional hops: 6117
Adding flit 348 as NACK at time 658
Additional hops: 6131
Adding flit 364 as NACK at time 658
Additional hops: 6137
Adding flit 392 as NACK at time 659
Additional hops: 6144
Adding flit 391 as NACK at time 660
Reenqueueing errored packet 372 at time 661
Additional hops: 6148
Adding flit 397 as NACK at time 661
Reenqueueing errored packet 386 at time 662
Additional hops: 6158
Adding flit 380 as NACK at time 663
Additional hops: 6182
Adding flit 326 as NACK at time 663
Reenqueueing errored packet 329 at time 664
Additional hops: 6192
Adding flit 387 as NACK at time 664
Additional hops: 6196
Adding flit 398 as NACK at time 664
Additional hops: 6202
Adding flit 395 as NACK at time 665
Additional hops: 6212
Adding flit 388 as NACK at time 665
Uncorrectable 3
Additional hops: 6232
Adding flit 355 as NACK at time 666
Additional hops: 6242
Adding flit 389 as NACK at time 666
Reenqueueing errored packet 284 at time 667
Reenqueueing errored packet 319 at time 668
Additional hops: 6302
Adding flit 104 as NACK at time 668
Additional hops: 6310
Adding flit 393 as NACK at time 668
Additional hops: 6334
Adding flit 301 as NACK at time 669
Reenqueueing errored packet 397 at time 670
Additional hops: 6339
Adding flit 401 as NACK at time 670
Reenqueueing errored packet 392 at time 672
Additional hops: 6389
Adding flit 177 as NACK at time 672
Reenqueueing errored packet 398 at time 673
Reenqueueing errored packet 339 at time 674
Additional hops: 6439
Adding flit 178 as NACK at time 674
Reenqueueing errored packet 391 at time 675
Reenqueueing errored packet 130 at time 676
Reenqueueing errored packet 174 at time 677
Reenqueueing errored packet 142 at time 677
Additional hops: 6451
Adding flit 384 as NACK at time 677
Reenqueueing errored packet 395 at time 678
Reenqueueing errored packet 278 at time 678
Reenqueueing errored packet 366 at time 679
Reenqueueing errored packet 351 at time 679
Reenqueueing errored packet 211 at time 679
Reenqueueing errored packet 44 at time 680
Reenqueueing errored packet 401 at time 681
Reenqueueing errored packet 258 at time 681
Reenqueueing errored packet 154 at time 681
Additional hops: 6471
Adding flit 329 as NACK at time 681
Reenqueueing errored packet 342 at time 682
Additional hops: 6483
Adding flit 386 as NACK at time 682
Additional hops: 6488
Adding flit 408 as NACK at time 682
Uncorrectable 3
Additional hops: 6512
Adding flit 354 as NACK at time 682
Reenqueueing errored packet 380 at time 684
Additional hops: 6520
Adding flit 397 as NACK at time 684
Uncorrectable 3
Additional hops: 6530
Adding flit 400 as NACK at time 684
Reenqueueing errored packet 393 at time 685
Reenqueueing errored packet 387 at time 685
Reenqueueing errored packet 388 at time 686
Reenqueueing errored packet 389 at time 687
Reenqueueing errored packet 364 at time 687
Reenqueueing errored packet 263 at time 688
Additional hops: 6560
Adding flit 321 as NACK at time 690
Reenqueueing errored packet 151 at time 691
Reenqueueing errored packet 254 at time 692
Additional hops: 6572
Adding flit 392 as NACK at time 692
Reenqueueing errored packet 408 at time 693
Uncorrectable 3
Additional hops: 6604
Adding flit 284 as NACK at time 693
Additional hops: 6648
Adding flit 248 as NACK at time 693
Additional hops: 6651
Adding flit 423 as NACK at time 697
Reenqueueing errored packet 348 at time 699
Uncorrectable 3
Additional hops: 6661
Adding flit 409 as NACK at time 699
Additional hops: 6679
Adding flit 366 as NACK at time 699
Additional hops: 6685
Adding flit 416 as NACK at time 700
Additional hops: 6734
Adding flit 142 as NACK at time 700
Reenqueueing errored packet 397 at time 701
Reenqueueing errored packet 384 at time 702
Additional hops: 6782
Adding flit 174 as NACK at time 703
Reenqueueing errored packet 423 at time 704
Additional hops: 6790
Adding flit 414 as NACK at time 704
Additional hops: 6823
Adding flit 319 as NACK at time 704
Reenqueueing errored packet 400 at time 705
Additional hops: 6847
Adding flit 351 as NACK at time 705
Additional hops: 6854
Adding flit 419 as NACK at time 705
Reenqueueing errored packet 386 at time 707
Reenqueueing errored packet 355 at time 707
Additional hops: 6861
Adding flit 421 as NACK at time 707
Uncorrectable 5
Additional hops: 6921
Adding flit 130 as NACK at time 708
Reenqueueing errored packet 243 at time 711
Additional hops: 6937
Adding flit 393 as NACK at time 711
Additional hops: 6964
Adding flit 342 as NACK at time 711
Reenqueueing errored packet 326 at time 712
Reenqueueing errored packet 416 at time 713
Additional hops: 6973
Adding flit 422 as NACK at time 714
Additional hops: 7017
Adding flit 258 as NACK at time 716
Reenqueueing errored packet 392 at time 717
Reenqueueing errored packet 301 at time 718
Uncorrectable 4
Additional hops: 7037
Adding flit 388 as NACK at time 718
Additional hops: 7057
Adding flit 389 as NACK at time 719
Reenqueueing errored packet 419 at time 720
Reenqueueing errored packet 409 at time 720
Reenqueueing errored packet 414 at time 721
Uncorrectable 3
Additional hops: 7135
Adding flit 44 as NACK at time 721
Reenqueueing errored packet 421 at time 722
Reenqueueing errored packet 329 at time 722
Additional hops: 7145
Adding flit 424 as NACK at time 722
Additional hops: 7163
Adding flit 384 as NACK at time 722
Additional hops: 7171
Adding flit 425 as NACK at time 725
Additional hops: 7175
Adding flit 433 as NACK at time 725
Additional hops: 7193
Adding flit 386 as NACK at time 727
Additional hops: 7196
Adding flit 438 as NACK at time 728
Additional hops: 7204
Adding flit 428 as NACK at time 728
Reenqueueing errored packet 354 at time 731
Additional hops: 7212
Adding flit 430 as NACK at time 732
Additional hops: 7218
Adding flit 434 as NACK at time 732
Reenqueueing errored packet 422 at time 733
Additional hops: 7223
Adding flit 436 as NACK at time 733
Uncorrectable 3
Additional hops: 7227
Adding flit 444 as NACK at time 733
Reenqueueing errored packet 433 at time 734
Reenqueueing errored packet 438 at time 735
Uncorrectable 3
Additional hops: 7236
Adding flit 429 as NACK at time 735
Reenqueueing errored packet 366 at time 736
Additional hops: 7266
Adding flit 301 as NACK at time 738
Additional hops: 7296
Adding flit 355 as NACK at time 739
Uncorrectable 4
Additional hops: 7341
Adding flit 243 as NACK at time 740
Reenqueueing errored packet 444 at time 742
Reenqueueing errored packet 425 at time 742
Additional hops: 7347
Adding flit 445 as NACK at time 742
Reenqueueing errored packet 424 at time 743
Additional hops: 7361
Adding flit 419 as NACK at time 743
Reenqueueing errored packet 436 at time 744
Reenqueueing errored packet 393 at time 744
Reenqueueing errored packet 434 at time 745
Reenqueueing errored packet 428 at time 745
Additional hops: 7365
Adding flit 451 as NACK at time 745
Additional hops: 7368
Adding flit 457 as NACK at time 745
Additional hops: 7382
Adding flit 421 as NACK at time 745
Additional hops: 7388
Adding flit 438 as NACK at time 746
Additional hops: 7397
Adding flit 439 as NACK at time 747
Additional hops: 7413
Adding flit 414 as NACK at time 747
Reenqueueing errored packet 430 at time 749
Reenqueueing errored packet 38 at time 750
Additional hops: 7417
Adding flit 458 as NACK at time 750
Additional hops: 7427
Adding flit 440 as NACK at time 750
Reenqueueing errored packet 321 at time 751
Additional hops: 7435
Adding flit 448 as NACK at time 751
Additional hops: 7444
Adding flit 446 as NACK at time 751
Reenqueueing errored packet 457 at time 752
Reenqueueing errored packet 451 at time 754
Reenqueueing errored packet 351 at time 754
Reenqueueing errored packet 445 at time 755
Uncorrectable 3
Additional hops: 7468
Adding flit 366 as NACK at time 756
Reenqueueing errored packet 284 at time 758
Additional hops: 7481
Adding flit 437 as NACK at time 758
Reenqueueing errored packet 458 at time 759
Reenqueueing errored packet 438 at time 759
Reenqueueing errored packet 384 at time 759
Reenqueueing errored packet 388 at time 759
Additional hops: 7490
Adding flit 452 as NACK at time 759
Reenqueueing errored packet 389 at time 760
Additional hops: 7502
Adding flit 447 as NACK at time 762
Additional hops: 7520
Adding flit 422 as NACK at time 763
Additional hops: 7526
Adding flit 457 as NACK at time 763
Additional hops: 7535
Adding flit 456 as NACK at time 763
Reenqueueing errored packet 386 at time 764
Additional hops: 7544
Adding flit 459 as NACK at time 765
Reenqueueing errored packet 439 at time 766
Reenqueueing errored packet 342 at time 766
Reenqueueing errored packet 448 at time 768
Additional hops: 7552
Adding flit 451 as NACK at time 768
Additional hops: 7588
Adding flit 354 as NACK at time 769
Reenqueueing errored packet 446 at time 770
Additional hops: 7612
Adding flit 393 as NACK at time 770
Additional hops: 7621
Adding flit 438 as NACK at time 770
Reenqueueing errored packet 440 at time 771
Reenqueueing errored packet 319 at time 771
Reenqueueing errored packet 105 at time 771
Reenqueueing errored packet 419 at time 772
Reenqueueing errored packet 177 at time 773
Uncorrectable 4
Additional hops: 7628
Adding flit 463 as NACK at time 773
Reenqueueing errored packet 421 at time 774
Reenqueueing errored packet 178 at time 775
Reenqueueing errored packet 457 at time 776
Reenqueueing errored packet 452 at time 778
Reenqueueing errored packet 414 at time 780
Additional hops: 7660
Adding flit 351 as NACK at time 780
Reenqueueing errored packet 456 at time 782
Reenqueueing errored packet 248 at time 782
Additional hops: 7700
Adding flit 321 as NACK at time 783
Reenqueueing errored packet 459 at time 784
Additional hops: 7740
Adding flit 284 as NACK at time 784
Additional hops: 7764
Adding flit 386 as NACK at time 784
Reenqueueing errored packet 451 at time 785
Reenqueueing errored packet 437 at time 785
Uncorrectable 3
Additional hops: 7841
Adding flit 38 as NACK at time 786
Reenqueueing errored packet 447 at time 787
Additional hops: 7851
Adding flit 466 as NACK at time 787
Reenqueueing errored packet 463 at time 788
Reenqueueing errored packet 438 at time 789
Reenqueueing errored packet 104 at time 789
Additional hops: 7853
Adding flit 481 as NACK at time 789
Additional hops: 7858
Adding flit 478 as NACK at time 791
Additional hops: 7867
Adding flit 468 as NACK at time 791
Additional hops: 7897
Adding flit 388 as NACK at time 791
Reenqueueing errored packet 481 at time 794
Additional hops: 7913
Adding flit 448 as NACK at time 794
Additional hops: 7931
Adding flit 439 as NACK at time 795
Additional hops: 7952
Adding flit 421 as NACK at time 797
Reenqueueing errored packet 301 at time 799
Reenqueueing errored packet 142 at time 799
Additional hops: 7962
Adding flit 475 as NACK at time 799
Uncorrectable 3
Additional hops: 7980
Adding flit 446 as NACK at time 799
Reenqueueing errored packet 422 at time 800
Reenqueueing errored packet 355 at time 800
Reenqueueing errored packet 174 at time 800
Reenqueueing errored packet 478 at time 802
Reenqueueing errored packet 366 at time 805
Reenqueueing errored packet 258 at time 805
Additional hops: 8024
Adding flit 319 as NACK at time 806
Additional hops: 8084
Adding flit 178 as NACK at time 807
Reenqueueing errored packet 466 at time 808
Reenqueueing errored packet 468 at time 810
Additional hops: 8102
Adding flit 456 as NACK at time 811
Additional hops: 8180
Adding flit 105 as NACK at time 812
Additional hops: 8189
Adding flit 484 as NACK at time 812
Additional hops: 8191
Adding flit 493 as NACK at time 813
Additional hops: 8209
Adding flit 459 as NACK at time 813
Additional hops: 8216
Adding flit 487 as NACK at time 814
Reenqueueing errored packet 493 at time 818
Reenqueueing errored packet 393 at time 819
Additional hops: 8226
Adding flit 478 as NACK at time 819
Reenqueueing errored packet 475 at time 820
Additional hops: 8296
Adding flit 104 as NACK at time 821
Additional hops: 8301
Adding flit 492 as NACK at time 821
Additional hops: 8311
Adding flit 486 as NACK at time 822
Additional hops: 8367
Adding flit 142 as NACK at time 822
Uncorrectable 3
Additional hops: 8375
Adding flit 489 as NACK at time 825
Additional hops: 8431
Adding flit 174 as NACK at time 826
Uncorrectable 3
Additional hops: 8457
Adding flit 437 as NACK at time 826
Reenqueueing errored packet 448 at time 827
Reenqueueing errored packet 487 at time 829
Reenqueueing errored packet 130 at time 829
Additional hops: 8484
Adding flit 422 as NACK at time 829
Reenqueueing errored packet 484 at time 831
Reenqueueing errored packet 243 at time 831
Reenqueueing errored packet 492 at time 832
Reenqueueing errored packet 439 at time 832
Additional hops: 8524
Adding flit 355 as NACK at time 832
Reenqueueing errored packet 386 at time 833
Additional hops: 8531
Adding flit 496 as NACK at time 835
Reenqueueing errored packet 446 at time 836
Additional hops: 8538
Adding flit 497 as NACK at time 839
Uncorrectable 4
Additional hops: 8556
Adding flit 468 as NACK at time 839
Reenqueueing errored packet 478 at time 840
Reenqueueing errored packet 421 at time 840
Uncorrectable 4
Additional hops: 8611
Adding flit 258 as NACK at time 840
Reenqueueing errored packet 489 at time 842
Reenqueueing errored packet 354 at time 842
Reenqueueing errored packet 486 at time 843
Reenqueueing errored packet 351 at time 845
Additional hops: 8615
Adding flit 505 as NACK at time 846
Reenqueueing errored packet 456 at time 848
Reenqueueing errored packet 496 at time 850
Reenqueueing errored packet 459 at time 850
Additional hops: 8621
Adding flit 502 as NACK at time 850
Additional hops: 8624
Adding flit 508 as NACK at time 850
Additional hops: 8629
Adding flit 506 as NACK at time 850
Additional hops: 8635
Adding flit 503 as NACK at time 851
Reenqueueing errored packet 388 at time 852
Additional hops: 8655
Adding flit 475 as NACK at time 852
Additional hops: 8669
Adding flit 487 as NACK at time 852
Additional hops: 8699
Adding flit 386 as NACK at time 853
Additional hops: 8723
Adding flit 448 as NACK at time 853
Reenqueueing errored packet 497 at time 854
Reenqueueing errored packet 505 at time 855
Reenqueueing errored packet 508 at time 857
Additional hops: 8738
Adding flit 478 as NACK at time 857
Additional hops: 8746
Adding flit 504 as NACK at time 857
Additional hops: 8751
Adding flit 509 as NACK at time 859
Additional hops: 8756
Adding flit 511 as NACK at time 860
Additional hops: 8764
Adding flit 507 as NACK at time 860
Reenqueueing errored packet 506 at time 861
Additional hops: 8791
Adding flit 439 as NACK at time 861
Additional hops: 8861
Adding flit 130 as NACK at time 861
Additional hops: 8879
Adding flit 484 as NACK at time 861
Reenqueueing errored packet 502 at time 863
Reenqueueing errored packet 503 at time 864
Reenqueueing errored packet 321 at time 864
Additional hops: 8883
Adding flit 513 as NACK at time 864
Reenqueueing errored packet 284 at time 865
Additional hops: 8889
Adding flit 514 as NACK at time 869
Additional hops: 8897
Adding flit 505 as NACK at time 869
Reenqueueing errored packet 509 at time 870
Reenqueueing errored packet 511 at time 871
Additional hops: 8937
Adding flit 351 as NACK at time 871
Reenqueueing errored packet 513 at time 873
Uncorrectable 3
Additional hops: 8951
Adding flit 496 as NACK at time 873
Reenqueueing errored packet 504 at time 874
Additional hops: 8957
Adding flit 518 as NACK at time 874
Uncorrectable 3
Additional hops: 8977
Adding flit 486 as NACK at time 875
Uncorrectable 3
Additional hops: 8985
Adding flit 512 as NACK at time 875
Reenqueueing errored packet 468 at time 876
Additional hops: 8989
Adding flit 522 as NACK at time 876
Reenqueueing errored packet 507 at time 877
Reenqueueing errored packet 44 at time 878
Additional hops: 8999
Adding flit 506 as NACK at time 878
Uncorrectable 3
Additional hops: 9010
Adding flit 510 as NACK at time 878
Reenqueueing errored packet 437 at time 879
Additional hops: 9037
Adding flit 459 as NACK at time 879
Additional hops: 9085
Adding flit 354 as NACK at time 880
Reenqueueing errored packet 487 at time 881
Additional hops: 9090
Adding flit 523 as NACK at time 881
Reenqueueing errored packet 514 at time 882
Additional hops: 9102
Adding flit 502 as NACK at time 883
Additional hops: 9109
Adding flit 521 as NACK at time 883
Reenqueueing errored packet 422 at time 884
Additional hops: 9149
Adding flit 388 as NACK at time 884
Reenqueueing errored packet 522 at time 885
Reenqueueing errored packet 505 at time 886
Reenqueueing errored packet 518 at time 887
Additional hops: 9157
Adding flit 513 as NACK at time 887
Additional hops: 9167
Adding flit 509 as NACK at time 887
Reenqueueing errored packet 478 at time 888
Additional hops: 9215
Adding flit 284 as NACK at time 891
Reenqueueing errored packet 523 at time 892
Reenqueueing errored packet 512 at time 892
Reenqueueing errored packet 475 at time 893
Reenqueueing errored packet 319 at time 895
Additional hops: 9265
Adding flit 321 as NACK at time 896
Reenqueueing errored packet 521 at time 898
Reenqueueing errored packet 484 at time 898
Reenqueueing errored packet 506 at time 899
Additional hops: 9273
Adding flit 522 as NACK at time 899
Additional hops: 9285
Adding flit 505 as NACK at time 900
Additional hops: 9301
Adding flit 504 as NACK at time 900
Reenqueueing errored packet 510 at time 901
Reenqueueing errored packet 496 at time 902
Reenqueueing errored packet 448 at time 902
Additional hops: 9313
Adding flit 514 as NACK at time 902
Additional hops: 9329
Adding flit 507 as NACK at time 903
Reenqueueing errored packet 513 at time 904
Additional hops: 9341
Adding flit 524 as NACK at time 904
Additional hops: 9368
Adding flit 468 as NACK at time 905
Reenqueueing errored packet 509 at time 908
Reenqueueing errored packet 502 at time 908
Additional hops: 9375
Adding flit 529 as NACK at time 910
Reenqueueing errored packet 355 at time 913
Uncorrectable 3
Additional hops: 9411
Adding flit 422 as NACK at time 913
Uncorrectable 3
Additional hops: 9417
Adding flit 531 as NACK at time 913
Reenqueueing errored packet 386 at time 914
Additional hops: 9422
Adding flit 533 as NACK at time 914
Additional hops: 9430
Adding flit 530 as NACK at time 914
Reenqueueing errored packet 522 at time 916
Reenqueueing errored packet 486 at time 916
Reenqueueing errored packet 439 at time 916
Additional hops: 9437
Adding flit 532 as NACK at time 917
Additional hops: 9453
Adding flit 512 as NACK at time 918
Additional hops: 9544
Adding flit 44 as NACK at time 919
Additional hops: 9549
Adding flit 538 as NACK at time 920
Reenqueueing errored packet 533 at time 925
Reenqueueing errored packet 529 at time 925
Reenqueueing errored packet 505 at time 925
Additional hops: 9570
Adding flit 496 as NACK at time 925
Reenqueueing errored packet 531 at time 926
Additional hops: 9600
Adding flit 475 as NACK at time 926
Reenqueueing errored packet 514 at time 927
Additional hops: 9627
Adding flit 484 as NACK at time 927
Reenqueueing errored packet 178 at time 928
Additional hops: 9645
Adding flit 502 as NACK at time 928
Reenqueueing errored packet 524 at time 929
Additional hops: 9653
Adding flit 537 as NACK at time 929
Additional hops: 9659
Adding flit 545 as NACK at time 929
Additional hops: 9663
Adding flit 550 as NACK at time 929
Reenqueueing errored packet 538 at time 931
Reenqueueing errored packet 530 at time 931
Reenqueueing errored packet 532 at time 932
Additional hops: 9669
Adding flit 547 as NACK at time 932
Additional hops: 9677
Adding flit 540 as NACK at time 932
Reenqueueing errored packet 504 at time 933
Additional hops: 9686
Adding flit 539 as NACK at time 933
Reenqueueing errored packet 459 at time 934
Additional hops: 9722
Adding flit 386 as NACK at time 934
Additional hops: 9728
Adding flit 549 as NACK at time 934
Reenqueueing errored packet 142 at time 935
Reenqueueing errored packet 507 at time 936
Additional hops: 9750
Adding flit 510 as NACK at time 936
Reenqueueing errored packet 550 at time 938
Reenqueueing errored packet 174 at time 939
Reenqueueing errored packet 38 at time 941
Reenqueueing errored packet 545 at time 942
Additional hops: 9759
Adding flit 548 as NACK at time 942
Additional hops: 9765
Adding flit 556 as NACK at time 944
Reenqueueing errored packet 547 at time 945
Additional hops: 9801
Adding flit 439 as NACK at time 945
Reenqueueing errored packet 537 at time 946
Additional hops: 9805
Adding flit 564 as NACK at time 946
Additional hops: 9813
Adding flit 553 as NACK at time 946
Reenqueueing errored packet 549 at time 947
Additional hops: 9843
Adding flit 486 as NACK at time 948
Additional hops: 9853
Adding flit 538 as NACK at time 948
Additional hops: 9857
Adding flit 565 as NACK at time 948
Additional hops: 9871
Adding flit 529 as NACK at time 948
Reenqueueing errored packet 540 at time 949
Additional hops: 9883
Adding flit 546 as NACK at time 949
Reenqueueing errored packet 512 at time 951
Reenqueueing errored packet 258 at time 951
Reenqueueing errored packet 539 at time 952
Reenqueueing errored packet 351 at time 952
Additional hops: 9891
Adding flit 550 as NACK at time 952
Additional hops: 9896
Adding flit 566 as NACK at time 952
Reenqueueing errored packet 564 at time 955
Additional hops: 9910
Adding flit 532 as NACK at time 955
Additional hops: 9919
Adding flit 560 as NACK at time 956
Reenqueueing errored packet 565 at time 957
Reenqueueing errored packet 556 at time 957
Additional hops: 9927
Adding flit 563 as NACK at time 957
Additional hops: 9943
Adding flit 530 as NACK at time 957
Additional hops: 10006
Adding flit 142 as NACK at time 958
Additional hops: 10030
Adding flit 504 as NACK at time 959
Reenqueueing errored packet 468 at time 960
Additional hops: 10100
Adding flit 178 as NACK at time 960
Reenqueueing errored packet 548 at time 961
Additional hops: 10111
Adding flit 559 as NACK at time 961
Reenqueueing errored packet 104 at time 962
Reenqueueing errored packet 566 at time 963
Reenqueueing errored packet 553 at time 963
Reenqueueing errored packet 502 at time 965
Reenqueueing errored packet 388 at time 965
Additional hops: 10135
Adding flit 524 as NACK at time 967
Additional hops: 10147
Adding flit 549 as NACK at time 967
Reenqueueing errored packet 496 at time 968
Additional hops: 10155
Adding flit 569 as NACK at time 968
Reenqueueing errored packet 550 at time 969
Reenqueueing errored packet 538 at time 969
Reenqueueing errored packet 105 at time 969
Additional hops: 10163
Adding flit 564 as NACK at time 970
Additional hops: 10165
Adding flit 583 as NACK at time 970
Additional hops: 10168
Adding flit 581 as NACK at time 971
Additional hops: 10179
Adding flit 567 as NACK at time 972
Additional hops: 10195
Adding flit 537 as NACK at time 972
Reenqueueing errored packet 563 at time 974
Reenqueueing errored packet 546 at time 974
Reenqueueing errored packet 583 at time 975
Reenqueueing errored packet 560 at time 975
Additional hops: 10211
Adding flit 540 as NACK at time 975
Additional hops: 10218
Adding flit 577 as NACK at time 976
Reenqueueing errored packet 529 at time 977
Reenqueueing errored packet 354 at time 977
Additional hops: 10242
Adding flit 512 as NACK at time 977
Uncorrectable 3
Additional hops: 10330
Adding flit 38 as NACK at time 977
Additional hops: 10342
Adding flit 556 as NACK at time 977
Reenqueueing errored packet 581 at time 978
Uncorrectable 3
Additional hops: 10390
Adding flit 351 as NACK at time 978
Additional hops: 10399
Adding flit 575 as NACK at time 979
Additional hops: 10409
Adding flit 566 as NACK at time 980
Reenqueueing errored packet 510 at time 981
Additional hops: 10416
Adding flit 580 as NACK at time 981
Additional hops: 10418
Adding flit 589 as NACK at time 981
Reenqueueing errored packet 484 at time 982
Additional hops: 10430
Adding flit 550 as NACK at time 983
Reenqueueing errored packet 559 at time 984
Reenqueueing errored packet 532 at time 984
Reenqueueing errored packet 569 at time 985
Additional hops: 10454
Adding flit 502 as NACK at time 985
Reenqueueing errored packet 589 at time 986
Reenqueueing errored packet 422 at time 986
Additional hops: 10469
Adding flit 538 as NACK at time 986
Reenqueueing errored packet 564 at time 987
Reenqueueing errored packet 475 at time 987
Uncorrectable 3
Additional hops: 10535
Adding flit 258 as NACK at time 987
Reenqueueing errored packet 284 at time 988
Additional hops: 10551
Adding flit 553 as NACK at time 989
Additional hops: 10554
Adding flit 591 as NACK at time 989
Reenqueueing errored packet 530 at time 990
Uncorrectable 3
Additional hops: 10562
Adding flit 585 as NACK at time 990
Reenqueueing errored packet 577 at time 991
Reenqueueing errored packet 549 at time 992
Additional hops: 10567
Adding flit 590 as NACK at time 992
Additional hops: 10595
Adding flit 496 as NACK at time 992
Reenqueueing errored packet 567 at time 995
Reenqueueing errored packet 591 at time 996
Reenqueueing errored packet 580 at time 996
Additional hops: 10603
Adding flit 588 as NACK at time 996
Uncorrectable 4
Additional hops: 10612
Adding flit 587 as NACK at time 996
Reenqueueing errored packet 321 at time 997
Additional hops: 10623
Adding flit 582 as NACK at time 997
Additional hops: 10673
Adding flit 388 as NACK at time 997
Reenqueueing errored packet 575 at time 998
Additional hops: 10676
Adding flit 597 as NACK at time 998
Reenqueueing errored packet 566 at time 1001
Additional hops: 10678
Adding flit 602 as NACK at time 1001
Reenqueueing errored packet 556 at time 1002
Reenqueueing errored packet 130 at time 1002
Additional hops: 10683
Adding flit 595 as NACK at time 1002
Reenqueueing errored packet 590 at time 1003
Reenqueueing errored packet 597 at time 1005
Reenqueueing errored packet 537 at time 1005
Reenqueueing errored packet 602 at time 1006
Additional hops: 10687
Adding flit 600 as NACK at time 1006
Reenqueueing errored packet 585 at time 1007
Reenqueueing errored packet 386 at time 1007
Additional hops: 10708
Adding flit 532 as NACK at time 1007
Additional hops: 10714
Adding flit 596 as NACK at time 1007
Reenqueueing errored packet 550 at time 1008
Reenqueueing errored packet 540 at time 1008
Reenqueueing errored packet 504 at time 1008
Reenqueueing errored packet 486 at time 1009
Additional hops: 10805
Adding flit 105 as NACK at time 1010
Additional hops: 10813
Adding flit 594 as NACK at time 1010
Uncorrectable 3
Additional hops: 10849
Adding flit 484 as NACK at time 1011
Additional hops: 10856
Adding flit 598 as NACK at time 1012
Reenqueueing errored packet 595 at time 1013
Reenqueueing errored packet 588 at time 1013
Additional hops: 10866
Adding flit 592 as NACK at time 1014
Additional hops: 10880
Adding flit 577 as NACK at time 1014
Additional hops: 10881
Adding flit 609 as NACK at time 1014
Reenqueueing errored packet 600 at time 1015
Reenqueueing errored packet 587 at time 1015
Reenqueueing errored packet 524 at time 1016
Additional hops: 10887
Adding flit 597 as NACK at time 1016
Additional hops: 10911
Adding flit 530 as NACK at time 1016
Reenqueueing errored packet 609 at time 1017
Reenqueueing errored packet 538 at time 1017
Additional hops: 10916
Adding flit 603 as NACK at time 1017
Reenqueueing errored packet 439 at time 1018
Additional hops: 10938
Adding flit 559 as NACK at time 1019
Reenqueueing errored packet 596 at time 1020
Reenqueueing errored packet 582 at time 1020
Additional hops: 10978
Adding flit 475 as NACK at time 1020
Additional hops: 10987
Adding flit 601 as NACK at time 1021
Reenqueueing errored packet 553 at time 1022
Additional hops: 11003
Adding flit 550 as NACK at time 1022
Additional hops: 11007
Adding flit 607 as NACK at time 1022
Uncorrectable 3
Additional hops: 11025
Adding flit 556 as NACK at time 1022
Reenqueueing errored packet 512 at time 1026
Additional hops: 11035
Adding flit 599 as NACK at time 1026
Reenqueueing errored packet 598 at time 1027
Reenqueueing errored packet 594 at time 1027
Additional hops: 11077
Adding flit 386 as NACK at time 1027
Reenqueueing errored packet 603 at time 1028
Reenqueueing errored packet 597 at time 1029
Uncorrectable 4
Additional hops: 11137
Adding flit 321 as NACK at time 1029
Additional hops: 11159
Adding flit 567 as NACK at time 1030
Uncorrectable 3
Additional hops: 11167
Adding flit 605 as NACK at time 1030
Additional hops: 11177
Adding flit 595 as NACK at time 1030
Additional hops: 11183
Adding flit 612 as NACK at time 1030
Reenqueueing errored packet 607 at time 1031
Uncorrectable 3
Additional hops: 11207
Adding flit 537 as NACK at time 1031
Additional hops: 11211
Adding flit 616 as NACK at time 1033
Additional hops: 11215
Adding flit 617 as NACK at time 1033
Reenqueueing errored packet 502 at time 1034
Additional hops: 11235
Adding flit 538 as NACK at time 1034
Additional hops: 11315
Adding flit 130 as NACK at time 1034
Additional hops: 11339
Adding flit 540 as NACK at time 1034
Additional hops: 11347
Adding flit 606 as NACK at time 1034
Reenqueueing errored packet 592 at time 1035
Additional hops: 11355
Adding flit 608 as NACK at time 1035
Additional hops: 11362
Adding flit 614 as NACK at time 1036
Additional hops: 11371
Adding flit 610 as NACK at time 1039
Reenqueueing errored packet 601 at time 1040
Additional hops: 11380
Adding flit 597 as NACK at time 1040
Additional hops: 11392
Adding flit 596 as NACK at time 1040
Additional hops: 11395
Adding flit 625 as NACK at time 1040
Additional hops: 11435
Adding flit 486 as NACK at time 1041
Reenqueueing errored packet 617 at time 1042
Reenqueueing errored packet 616 at time 1042
Reenqueueing errored packet 612 at time 1043
Reenqueueing errored packet 577 at time 1043
Additional hops: 11453
Adding flit 587 as NACK at time 1044
Additional hops: 11463
Adding flit 603 as NACK at time 1045
Additional hops: 11471
Adding flit 607 as NACK at time 1045
Additional hops: 11474
Adding flit 631 as NACK at time 1046
Reenqueueing errored packet 625 at time 1047
Reenqueueing errored packet 605 at time 1047
Reenqueueing errored packet 599 at time 1047
Additional hops: 11498
Adding flit 553 as NACK at time 1048
Reenqueueing errored packet 496 at time 1049
Reenqueueing errored packet 532 at time 1050
Reenqueueing errored packet 614 at time 1051
Reenqueueing errored packet 606 at time 1051
Reenqueueing errored packet 595 at time 1051
Reenqueueing errored packet 608 at time 1052
Additional hops: 11506
Adding flit 622 as NACK at time 1052
Additional hops: 11538
Adding flit 512 as NACK at time 1052
Reenqueueing errored packet 631 at time 1053
Additional hops: 11554
Adding flit 594 as NACK at time 1053
Additional hops: 11590
Adding flit 524 as NACK at time 1054
Reenqueueing errored packet 550 at time 1055
Additional hops: 11612
Adding flit 582 as NACK at time 1055
Additional hops: 11620
Adding flit 616 as NACK at time 1056
Additional hops: 11628
Adding flit 617 as NACK at time 1056
Additional hops: 11637
Adding flit 624 as NACK at time 1057
Reenqueueing errored packet 610 at time 1058
Additional hops: 11643
Adding flit 625 as NACK at time 1058
Reenqueueing errored packet 597 at time 1059
Reenqueueing errored packet 556 at time 1059
Reenqueueing errored packet 607 at time 1062
Reenqueueing errored packet 559 at time 1064
Reenqueueing errored packet 596 at time 1065
Reenqueueing errored packet 530 at time 1065
Reenqueueing errored packet 603 at time 1066
Additional hops: 11658
Adding flit 595 as NACK at time 1068
Reenqueueing errored packet 622 at time 1069
Additional hops: 11678
Adding flit 550 as NACK at time 1069
Reenqueueing errored packet 625 at time 1071
Additional hops: 11688
Adding flit 633 as NACK at time 1071
Additional hops: 11723
Adding flit 496 as NACK at time 1072
Reenqueueing errored packet 617 at time 1073
Reenqueueing errored packet 616 at time 1073
Additional hops: 11751
Adding flit 532 as NACK at time 1073
Additional hops: 11758
Adding flit 637 as NACK at time 1073
Reenqueueing errored packet 538 at time 1075
Reenqueueing errored packet 567 at time 1075
Reenqueueing errored packet 351 at time 1075
Reenqueueing errored packet 624 at time 1076
Additional hops: 11764
Adding flit 640 as NACK at time 1076
Additional hops: 11780
Adding flit 606 as NACK at time 1077
Additional hops: 11796
Adding flit 608 as NACK at time 1078
Additional hops: 11816
Adding flit 599 as NACK at time 1079
Additional hops: 11826
Adding flit 635 as NACK at time 1079
Additional hops: 11850
Adding flit 556 as NACK at time 1079
Reenqueueing errored packet 537 at time 1080
Additional hops: 11857
Adding flit 642 as NACK at time 1080
Reenqueueing errored packet 587 at time 1081
Reenqueueing errored packet 540 at time 1083
Additional hops: 11872
Adding flit 603 as NACK at time 1083
Reenqueueing errored packet 484 at time 1084
Reenqueueing errored packet 142 at time 1085
Additional hops: 11890
Adding flit 596 as NACK at time 1085
Reenqueueing errored packet 594 at time 1086
Uncorrectable 4
Additional hops: 11908
Adding flit 610 as NACK at time 1087
Reenqueueing errored packet 637 at time 1088
Reenqueueing errored packet 640 at time 1089
Reenqueueing errored packet 633 at time 1092
Additional hops: 11933
Adding flit 538 as NACK at time 1092
Additional hops: 11941
Adding flit 643 as NACK at time 1093
Reenqueueing errored packet 642 at time 1095
Reenqueueing errored packet 553 at time 1097
Reenqueueing errored packet 388 at time 1098
Reenqueueing errored packet 595 at time 1099
Additional hops: 11974
Adding flit 559 as NACK at time 1099
Reenqueueing errored packet 635 at time 1100
Reenqueueing errored packet 582 at time 1100
Reenqueueing errored packet 475 at time 1101
Reenqueueing errored packet 178 at time 1101
Additional hops: 11982
Adding flit 648 as NACK at time 1101
Additional hops: 12038
Adding flit 351 as NACK at time 1101
Reenqueueing errored packet 44 at time 1102
Additional hops: 12040
Adding flit 661 as NACK at time 1104
Additional hops: 12072
Adding flit 537 as NACK at time 1106
Uncorrectable 4
Additional hops: 12142
Adding flit 142 as NACK at time 1108
Uncorrectable 3
Additional hops: 12148
Adding flit 653 as NACK at time 1108
Reenqueueing errored packet 661 at time 1109
Additional hops: 12154
Adding flit 654 as NACK at time 1109
Additional hops: 12166
Adding flit 640 as NACK at time 1109
Reenqueueing errored packet 643 at time 1110
Reenqueueing errored packet 606 at time 1110
Reenqueueing errored packet 550 at time 1110
Additional hops: 12199
Adding flit 567 as NACK at time 1110
Uncorrectable 3
Additional hops: 12231
Adding flit 540 as NACK at time 1110
Reenqueueing errored packet 608 at time 1111
Reenqueueing errored packet 386 at time 1112
Additional hops: 12255
Adding flit 594 as NACK at time 1112
Additional hops: 12265
Adding flit 652 as NACK at time 1112
Additional hops: 12310
Adding flit 484 as NACK at time 1113
Reenqueueing errored packet 603 at time 1114
Additional hops: 12316
Adding flit 657 as NACK at time 1115
Additional hops: 12320
Adding flit 664 as NACK at time 1115
Reenqueueing errored packet 512 at time 1117
Reenqueueing errored packet 648 at time 1118
Additional hops: 12334
Adding flit 642 as NACK at time 1118
Reenqueueing errored packet 599 at time 1120
Reenqueueing errored packet 258 at time 1120
Additional hops: 12342
Adding flit 659 as NACK at time 1120
Reenqueueing errored packet 653 at time 1121
Reenqueueing errored packet 654 at time 1122
Reenqueueing errored packet 596 at time 1122
Reenqueueing errored packet 486 at time 1122
Additional hops: 12348
Adding flit 666 as NACK at time 1123
Reenqueueing errored packet 664 at time 1124
Reenqueueing errored packet 610 at time 1124
Additional hops: 12368
Adding flit 633 as NACK at time 1124
Reenqueueing errored packet 524 at time 1127
Reenqueueing errored packet 657 at time 1128
Reenqueueing errored packet 556 at time 1128
Reenqueueing errored packet 532 at time 1130
Additional hops: 12373
Adding flit 670 as NACK at time 1130
Additional hops: 12393
Adding flit 603 as NACK at time 1131
Reenqueueing errored packet 652 at time 1133
Uncorrectable 3
Additional hops: 12473
Adding flit 178 as NACK at time 1133
Uncorrectable 3
Additional hops: 12521
Adding flit 386 as NACK at time 1133
Additional hops: 12571
Adding flit 475 as NACK at time 1133
Reenqueueing errored packet 640 at time 1134
Additional hops: 12578
Adding flit 669 as NACK at time 1135
Additional hops: 12611
[...]
Reenqueueing errored packet 25415 at time 39785
Reenqueueing errored packet 25301 at time 39785
Reenqueueing errored packet 25521 at time 39788
Reenqueueing errored packet 25519 at time 39788
Uncorrectable 3
Additional hops: 649760
Adding flit 25443 as NACK at time 39789
Reenqueueing errored packet 25520 at time 39790
Additional hops: 649764
Adding flit 25540 as NACK at time 39791
Reenqueueing errored packet 25528 at time 39792
Additional hops: 649769
Adding flit 25539 as NACK at time 39793
Reenqueueing errored packet 25497 at time 39794
Additional hops: 649781
Adding flit 25492 as NACK at time 39794
Additional hops: 649831
Adding flit 25274 as NACK at time 39797
Reenqueueing errored packet 25489 at time 39798
Additional hops: 649843
Adding flit 25511 as NACK at time 39798
Uncorrectable 3
Additional hops: 649855
Adding flit 25518 as NACK at time 39798
Reenqueueing errored packet 25523 at time 39799
Reenqueueing errored packet 25490 at time 39799
Reenqueueing errored packet 25540 at time 39800
Reenqueueing errored packet 25475 at time 39802
Additional hops: 649873
Adding flit 25506 as NACK at time 39802
Reenqueueing errored packet 25539 at time 39804
Additional hops: 649950
Adding flit 25024 as NACK at time 39804
Uncorrectable 3
Additional hops: 649990
Adding flit 25381 as NACK at time 39805
Reenqueueing errored packet 25467 at time 39806
Additional hops: 650040
Adding flit 25289 as NACK at time 39808
Additional hops: 650050
Adding flit 25528 as NACK at time 39809
Additional hops: 650086
Adding flit 25424 as NACK at time 39809
Uncorrectable 5
Additional hops: 650116
Adding flit 25451 as NACK at time 39810
Uncorrectable 3
Additional hops: 650130
Adding flit 25521 as NACK at time 39811
Reenqueueing errored packet 25376 at time 39812
Additional hops: 650142
Adding flit 25537 as NACK at time 39812
Uncorrectable 3
Additional hops: 650192
Adding flit 25295 as NACK at time 39812
Additional hops: 650200
Adding flit 25544 as NACK at time 39812
Reenqueueing errored packet 25465 at time 39813
Additional hops: 650218
Adding flit 25515 as NACK at time 39814
Additional hops: 650238
Adding flit 25509 as NACK at time 39814
Additional hops: 650254
Adding flit 25519 as NACK at time 39814
Reenqueueing errored packet 25456 at time 39815
Reenqueueing errored packet 25204 at time 39816
Additional hops: 650294
Adding flit 25388 as NACK at time 39816
Additional hops: 650304
Adding flit 25543 as NACK at time 39816
Additional hops: 650320
Adding flit 25520 as NACK at time 39816
Reenqueueing errored packet 25477 at time 39817
Additional hops: 650329
Adding flit 25546 as NACK at time 39817
Reenqueueing errored packet 25481 at time 39818
Reenqueueing errored packet 24758 at time 39818
Additional hops: 650336
Adding flit 25549 as NACK at time 39818
Additional hops: 650386
Adding flit 25301 as NACK at time 39818
Reenqueueing errored packet 25492 at time 39819
Reenqueueing errored packet 25423 at time 39819
Additional hops: 650396
Adding flit 25545 as NACK at time 39819
Additional hops: 650406
Adding flit 25539 as NACK at time 39821
Uncorrectable 3
Additional hops: 650427
Adding flit 25489 as NACK at time 39821
Reenqueueing errored packet 25518 at time 39823
Reenqueueing errored packet 25511 at time 39823
Additional hops: 650435
Adding flit 25550 as NACK at time 39824
Additional hops: 650451
Adding flit 25523 as NACK at time 39825
Reenqueueing errored packet 25544 at time 39829
Reenqueueing errored packet 25528 at time 39830
Reenqueueing errored packet 24980 at time 39831
Reenqueueing errored packet 25407 at time 39832
Reenqueueing errored packet 25549 at time 39833
Additional hops: 650456
Adding flit 25554 as NACK at time 39833
Additional hops: 650462
Adding flit 25553 as NACK at time 39834
Reenqueueing errored packet 25546 at time 39836
Reenqueueing errored packet 25543 at time 39837
Reenqueueing errored packet 25537 at time 39837
Reenqueueing errored packet 25315 at time 39837
Additional hops: 650468
Adding flit 25556 as NACK at time 39838
Additional hops: 650508
Adding flit 25376 as NACK at time 39838
Reenqueueing errored packet 25506 at time 39839
Uncorrectable 3
Additional hops: 650515
Adding flit 25555 as NACK at time 39839
Additional hops: 650545
Adding flit 25467 as NACK at time 39839
Reenqueueing errored packet 25545 at time 39840
Reenqueueing errored packet 25521 at time 39840
Reenqueueing errored packet 25550 at time 39841
Reenqueueing errored packet 25539 at time 39842
Additional hops: 650552
Adding flit 25557 as NACK at time 39842
Reenqueueing errored packet 25402 at time 39843
Reenqueueing errored packet 25554 at time 39844
Reenqueueing errored packet 25443 at time 39844
Additional hops: 650555
Adding flit 25563 as NACK at time 39844
Additional hops: 650567
Adding flit 25552 as NACK at time 39846
Reenqueueing errored packet 25553 at time 39847
Reenqueueing errored packet 25519 at time 39847
Reenqueueing errored packet 23480 at time 39848
Additional hops: 650600
Adding flit 25465 as NACK at time 39848
Reenqueueing errored packet 25520 at time 39849
Reenqueueing errored packet 25390 at time 39849
Additional hops: 650630
Adding flit 25481 as NACK at time 39850
Reenqueueing errored packet 25563 at time 39851
Reenqueueing errored packet 25556 at time 39851
Reenqueueing errored packet 25515 at time 39851
Reenqueueing errored packet 21459 at time 39851
Reenqueueing errored packet 24926 at time 39852
Additional hops: 650634
Adding flit 25566 as NACK at time 39852
Reenqueueing errored packet 25555 at time 39854
Reenqueueing errored packet 25509 at time 39855
Additional hops: 650669
Adding flit 25407 as NACK at time 39855
Additional hops: 650685
Adding flit 25544 as NACK at time 39855
Reenqueueing errored packet 25557 at time 39857
Reenqueueing errored packet 25318 at time 39857
Reenqueueing errored packet 25523 at time 39858
Reenqueueing errored packet 25261 at time 39858
Additional hops: 650693
Adding flit 25562 as NACK at time 39858
Reenqueueing errored packet 25359 at time 39859
Additional hops: 650708
Adding flit 25539 as NACK at time 39859
Additional hops: 650710
Adding flit 25580 as NACK at time 39860
Reenqueueing errored packet 25566 at time 39861
Additional hops: 650720
Adding flit 25554 as NACK at time 39861
Additional hops: 650727
Adding flit 25568 as NACK at time 39863
Additional hops: 650748
Adding flit 25521 as NACK at time 39863
Uncorrectable 3
Additional hops: 650828
Adding flit 24980 as NACK at time 39863
Reenqueueing errored packet 25489 at time 39864
Reenqueueing errored packet 25329 at time 39864
Reenqueueing errored packet 25580 at time 39865
Additional hops: 650833
Adding flit 25573 as NACK at time 39865
Additional hops: 650851
Adding flit 25546 as NACK at time 39865
Additional hops: 650863
Adding flit 25553 as NACK at time 39867
Additional hops: 650868
Adding flit 25579 as NACK at time 39869
Additional hops: 650873
Adding flit 25581 as NACK at time 39870
Additional hops: 650880
Adding flit 25572 as NACK at time 39870
Reenqueueing errored packet 25552 at time 39871
Reenqueueing errored packet 25451 at time 39871
Uncorrectable 3
Additional hops: 650889
Adding flit 25570 as NACK at time 39871
Additional hops: 650909
Adding flit 25545 as NACK at time 39872
Additional hops: 650964
Adding flit 25315 as NACK at time 39872
Reenqueueing errored packet 25112 at time 39873
Additional hops: 651000
Adding flit 25443 as NACK at time 39873
Additional hops: 651024
Adding flit 25519 as NACK at time 39873
Additional hops: 651030
Adding flit 25583 as NACK at time 39874
Reenqueueing errored packet 25562 at time 39875
Additional hops: 651054
Adding flit 25537 as NACK at time 39875
Uncorrectable 3
Additional hops: 651059
Adding flit 25585 as NACK at time 39875
Reenqueueing errored packet 25573 at time 39876
Additional hops: 651073
Adding flit 25555 as NACK at time 39877
Additional hops: 651115
Adding flit 25318 as NACK at time 39877
Reenqueueing errored packet 25568 at time 39878
Additional hops: 651124
Adding flit 25575 as NACK at time 39878
Reenqueueing errored packet 25579 at time 39880
Uncorrectable 3
Additional hops: 651151
Adding flit 25515 as NACK at time 39880
Additional hops: 651165
Adding flit 25557 as NACK at time 39880
Reenqueueing errored packet 25581 at time 39881
Additional hops: 651213
Adding flit 25402 as NACK at time 39881
Additional hops: 651294
Adding flit 24926 as NACK at time 39881
Uncorrectable 3
Additional hops: 651302
Adding flit 25584 as NACK at time 39881
Reenqueueing errored packet 25554 at time 39882
Reenqueueing errored packet 25424 at time 39882
Uncorrectable 5
Additional hops: 651326
Adding flit 25523 as NACK at time 39884
Reenqueueing errored packet 25572 at time 39885
Uncorrectable 3
Additional hops: 651333
Adding flit 25590 as NACK at time 39885
Reenqueueing errored packet 25585 at time 39886
Reenqueueing errored packet 25381 at time 39886
Additional hops: 651336
Adding flit 25596 as NACK at time 39886
Reenqueueing errored packet 25583 at time 39887
Additional hops: 651364
Adding flit 25489 as NACK at time 39887
Reenqueueing errored packet 25544 at time 39888
Uncorrectable 3
Additional hops: 651367
Adding flit 25599 as NACK at time 39888
Additional hops: 651375
Adding flit 25589 as NACK at time 39888
Reenqueueing errored packet 25570 at time 39890
Reenqueueing errored packet 25539 at time 39890
Additional hops: 651427
Adding flit 25390 as NACK at time 39890
Additional hops: 651477
Adding flit 25359 as NACK at time 39891
Additional hops: 651485
Adding flit 25592 as NACK at time 39891
Reenqueueing errored packet 25553 at time 39892
Additional hops: 651758
Adding flit 21459 as NACK at time 39892
Reenqueueing errored packet 25596 at time 39893
Additional hops: 651768
Adding flit 25573 as NACK at time 39893
Reenqueueing errored packet 25599 at time 39895
Additional hops: 651771
Adding flit 25607 as NACK at time 39895
Reenqueueing errored packet 25575 at time 39897
Reenqueueing errored packet 25388 at time 39897
Additional hops: 651781
Adding flit 25579 as NACK at time 39897
Reenqueueing errored packet 25584 at time 39898
Reenqueueing errored packet 25274 at time 39898
Additional hops: 651836
Adding flit 25329 as NACK at time 39899
Reenqueueing errored packet 25590 at time 39900
Reenqueueing errored packet 25467 at time 39900
Uncorrectable 3
Additional hops: 651850
Adding flit 25568 as NACK at time 39901
Additional hops: 651866
Adding flit 25562 as NACK at time 39901
Reenqueueing errored packet 25607 at time 39902
Reenqueueing errored packet 25546 at time 39902
Uncorrectable 4
Additional hops: 651873
Adding flit 25604 as NACK at time 39904
Reenqueueing errored packet 25589 at time 39905
Additional hops: 651879
Adding flit 25608 as NACK at time 39905
Additional hops: 651888
Adding flit 25598 as NACK at time 39905
Reenqueueing errored packet 25555 at time 39906
Reenqueueing errored packet 25521 at time 39906
Additional hops: 651891
Adding flit 25614 as NACK at time 39906
Reenqueueing errored packet 25592 at time 39908
Additional hops: 651905
Adding flit 25572 as NACK at time 39908
Uncorrectable 3
Additional hops: 651982
Adding flit 25112 as NACK at time 39908
Reenqueueing errored packet 25557 at time 39909
Reenqueueing errored packet 25289 at time 39909
Reenqueueing errored packet 24689 at time 39909
Reenqueueing errored packet 25481 at time 39911
Additional hops: 651992
Adding flit 25601 as NACK at time 39912
Reenqueueing errored packet 25614 at time 39913
Reenqueueing errored packet 25545 at time 39913
Reenqueueing errored packet 25295 at time 39913
Reenqueueing errored packet 25573 at time 39914
Reenqueueing errored packet 25465 at time 39915
Additional hops: 651998
Adding flit 25613 as NACK at time 39915
Additional hops: 652002
Adding flit 25622 as NACK at time 39916
Additional hops: 652007
Adding flit 25618 as NACK at time 39916
Additional hops: 652015
Adding flit 25612 as NACK at time 39917
Reenqueueing errored packet 25608 at time 39918
Reenqueueing errored packet 25579 at time 39918
Additional hops: 652065
Adding flit 25381 as NACK at time 39918
Reenqueueing errored packet 25604 at time 39919
Reenqueueing errored packet 25376 at time 39919
Reenqueueing errored packet 25301 at time 39919
Additional hops: 652083
Adding flit 25570 as NACK at time 39919
Reenqueueing errored packet 25055 at time 39920
Additional hops: 652131
Adding flit 25424 as NACK at time 39920
Reenqueueing errored packet 25519 at time 39922
Uncorrectable 3
Additional hops: 652145
Adding flit 25590 as NACK at time 39923
Reenqueueing errored packet 25598 at time 39924
Reenqueueing errored packet 25537 at time 39924
Additional hops: 652151
Adding flit 25626 as NACK at time 39924
Additional hops: 652167
Adding flit 25584 as NACK at time 39924
Reenqueueing errored packet 25622 at time 39925
Reenqueueing errored packet 25407 at time 39926
Additional hops: 652175
Adding flit 25619 as NACK at time 39926
Additional hops: 652182
Adding flit 25625 as NACK at time 39926
Reenqueueing errored packet 25618 at time 39927
Reenqueueing errored packet 25613 at time 39928
Reenqueueing errored packet 25568 at time 39930
Additional hops: 652203
Adding flit 25555 as NACK at time 39930
Additional hops: 652230
Adding flit 25546 as NACK at time 39931
Additional hops: 652270
Adding flit 25467 as NACK at time 39932
Reenqueueing errored packet 25601 at time 39933
Reenqueueing errored packet 25523 at time 39933
Reenqueueing errored packet 25612 at time 39934
Reenqueueing errored packet 25562 at time 39934
Reenqueueing errored packet 24442 at time 39934
Additional hops: 652286
Adding flit 25592 as NACK at time 39934
Reenqueueing errored packet 25515 at time 39935
Reenqueueing errored packet 25626 at time 39937
Reenqueueing errored packet 25572 at time 39937
Additional hops: 652298
Adding flit 25608 as NACK at time 39938
Additional hops: 652310
Adding flit 25621 as NACK at time 39939
Additional hops: 652313
Adding flit 25638 as NACK at time 39940
Reenqueueing errored packet 25625 at time 39941
Additional hops: 652373
Adding flit 25289 as NACK at time 39941
Additional hops: 652387
Adding flit 25604 as NACK at time 39942
Reenqueueing errored packet 25619 at time 39943
Uncorrectable 6
Additional hops: 652427
Adding flit 25481 as NACK at time 39943
Reenqueueing errored packet 25489 at time 39944
Additional hops: 652435
Adding flit 25632 as NACK at time 39944
Additional hops: 652465
Adding flit 25545 as NACK at time 39945
Additional hops: 652475
Adding flit 25618 as NACK at time 39945
Additional hops: 652535
Adding flit 25295 as NACK at time 39945
Reenqueueing errored packet 25443 at time 39946
Additional hops: 652538
Adding flit 25644 as NACK at time 39946
Reenqueueing errored packet 25638 at time 39947
Additional hops: 652541
Adding flit 25646 as NACK at time 39947
Additional hops: 652550
Adding flit 25633 as NACK at time 39948
Additional hops: 652562
Adding flit 25613 as NACK at time 39948
Additional hops: 652604
Adding flit 25407 as NACK at time 39949
Additional hops: 652609
Adding flit 25642 as NACK at time 39950
Reenqueueing errored packet 25590 at time 39952
Additional hops: 652669
Adding flit 25301 as NACK at time 39952
Reenqueueing errored packet 25644 at time 39953
Additional hops: 652690
Adding flit 25568 as NACK at time 39953
Additional hops: 652708
Adding flit 25598 as NACK at time 39953
Reenqueueing errored packet 25646 at time 39954
Additional hops: 652713
Adding flit 25647 as NACK at time 39954
Reenqueueing errored packet 25570 at time 39956
Additional hops: 652721
Adding flit 25639 as NACK at time 39956
Reenqueueing errored packet 25584 at time 39957
Additional hops: 652733
Adding flit 25626 as NACK at time 39957
Additional hops: 652739
Adding flit 25638 as NACK at time 39958
Reenqueueing errored packet 25024 at time 39959
Additional hops: 652763
Adding flit 25562 as NACK at time 39960
Reenqueueing errored packet 25642 at time 39961
Reenqueueing errored packet 25632 at time 39961
Additional hops: 652779
Adding flit 25612 as NACK at time 39961
Additional hops: 652785
Adding flit 25649 as NACK at time 39961
Additional hops: 652876
Adding flit 25055 as NACK at time 39961
Reenqueueing errored packet 25318 at time 39962
Additional hops: 652912
Adding flit 25537 as NACK at time 39962
Reenqueueing errored packet 25608 at time 39963
Reenqueueing errored packet 25621 at time 39964
Additional hops: 652918
Adding flit 25644 as NACK at time 39964
Reenqueueing errored packet 25647 at time 39965
Additional hops: 652924
Adding flit 25646 as NACK at time 39965
Reenqueueing errored packet 25618 at time 39966
Reenqueueing errored packet 25633 at time 39967
Reenqueueing errored packet 25592 at time 39967
Additional hops: 652959
Adding flit 25489 as NACK at time 39967
Additional hops: 652975
Adding flit 25619 as NACK at time 39970
Reenqueueing errored packet 25638 at time 39971
Reenqueueing errored packet 25604 at time 39971
Additional hops: 652979
Adding flit 25659 as NACK at time 39971
Additional hops: 653111
Adding flit 24442 as NACK at time 39972
Reenqueueing errored packet 25639 at time 39973
Reenqueueing errored packet 25613 at time 39973
Reenqueueing errored packet 25555 at time 39973
Additional hops: 653120
Adding flit 25650 as NACK at time 39973
Reenqueueing errored packet 25649 at time 39974
Additional hops: 653141
Adding flit 25590 as NACK at time 39975
Additional hops: 653186
Adding flit 25443 as NACK at time 39975
Additional hops: 653193
Adding flit 25656 as NACK at time 39976
Reenqueueing errored packet 25644 at time 39977
Reenqueueing errored packet 25646 at time 39978
Reenqueueing errored packet 25402 at time 39978
Reenqueueing errored packet 25659 at time 39980
Reenqueueing errored packet 25626 at time 39982
Reenqueueing errored packet 25315 at time 39983
Additional hops: 653198
Adding flit 25667 as NACK at time 39985
Additional hops: 653225
Adding flit 25570 as NACK at time 39985
Reenqueueing errored packet 25546 at time 39986
Additional hops: 653232
Adding flit 25663 as NACK at time 39986
Additional hops: 653238
Adding flit 25666 as NACK at time 39987
Additional hops: 653247
Adding flit 25646 as NACK at time 39989
Reenqueueing errored packet 25598 at time 39990
Reenqueueing errored packet 25656 at time 39991
Reenqueueing errored packet 25650 at time 39992
Reenqueueing errored packet 25359 at time 39992
Reenqueueing errored packet 23319 at time 39993
Reenqueueing errored packet 25612 at time 39994
Uncorrectable 3
Additional hops: 653335
Adding flit 25024 as NACK at time 39994
Additional hops: 653347
Adding flit 25649 as NACK at time 39994
Additional hops: 653368
Adding flit 25604 as NACK at time 39994
Additional hops: 653376
Adding flit 25659 as NACK at time 39994
Reenqueueing errored packet 25390 at time 39995
Reenqueueing errored packet 25667 at time 39996
Reenqueueing errored packet 25568 at time 39996
Uncorrectable 4
Additional hops: 653394
Adding flit 25633 as NACK at time 39996
Additional hops: 653422
Adding flit 25555 as NACK at time 39996
Additional hops: 653438
Adding flit 25639 as NACK at time 39999
Class 0:
Packet latency average = 93.1879
	minimum = 5
	maximum = 4575
Network latency average = 20.6672
	minimum = 5
	maximum = 48
Slowest packet = 19166
Flit latency average = 20.7278
	minimum = 5
	maximum = 48
Slowest flit = 25204
Fragmentation average = 0
	minimum = 0
	maximum = 0
Injected packet rate average = 0.0223687
	minimum = 0.016 (at node 42)
	maximum = 0.0318 (at node 56)
Accepted packet rate average = 0.0223687
	minimum = 0.0143 (at node 37)
	maximum = 0.0327 (at node 0)
Injected flit rate average = 0.0223687
	minimum = 0.016 (at node 42)
	maximum = 0.0318 (at node 56)
Accepted flit rate average= 0.0223687
	minimum = 0.0143 (at node 37)
	maximum = 0.0327 (at node 0)
Injected packet length average = 1
Accepted packet length average = 1
Total in-flight flits = 249 (118 measured)
latency change    = 0.131269
throughput change = 0.00977927
Average latency for class 0 exceeded 500 cycles. Aborting simulation.
Too many sample periods needed to converge
Simulation unstable, ending ...
Total run time 24.2333
