BEGIN Configuration File: examples/ecc_mesh88_config_0_0.100_packet_4
// $Id$

// Copyright (c) 2007-2015, Trustees of The Leland Stanford Junior University
// All rights reserved.
//
// Redistribution and use in source and binary forms, with or without
// modification, are permitted provided that the following conditions are met:
//
// Redistributions of source code must retain the above copyright notice, this
// list of conditions and the following disclaimer.
// Redistributions in binary form must reproduce the above copyright notice,
// this list of conditions and the following disclaimer in the documentation
// and/or other materials provided with the distribution.
//
// THIS SOFTWARE IS PROVIDED BY THE COPYRIGHT HOLDERS AND CONTRIBUTORS "AS IS"
// AND ANY EXPRESS OR IMPLIED WARRANTIES, INCLUDING, BUT NOT LIMITED TO, THE
// IMPLIED WARRANTIES OF MERCHANTABILITY AND FITNESS FOR A PARTICULAR PURPOSE
// ARE DISCLAIMED. IN NO EVENT SHALL THE COPYRIGHT OWNER OR CONTRIBUTORS BE
// LIABLE FOR ANY DIRECT, INDIRECT, INCIDENTAL, SPECIAL, EXEMPLARY, OR
// CONSEQUENTIAL DAMAGES (INCLUDING, BUT NOT LIMITED TO, PROCUREMENT OF
// SUBSTITUTE GOODS OR SERVICES; LOSS OF USE, DATA, OR PROFITS; OR BUSINESS
// INTERRUPTION) HOWEVER CAUSED AND ON ANY THEORY OF LIABILITY, WHETHER IN
// CONTRACT, STRICT LIABILITY, OR TORT (INCLUDING NEGLIGENCE OR OTHERWISE)
// ARISING IN ANY WAY OUT OF THE USE OF THIS SOFTWARE, EVEN IF ADVISED OF THE
// POSSIBILITY OF SUCH DAMAGE.

// Dragonfly
//




vc_buf_size = 256;


wait_for_tail_credit = 0;

//
// Router architecture
//
vc_allocator = separable_input_first; 
sw_allocator = separable_input_first;
alloc_iters  = 1;

credit_delay   = 2;
routing_delay  = 0;
vc_alloc_delay = 1;
sw_alloc_delay = 1;
st_final_delay = 1;

input_speedup     = 1;
output_speedup    = 1;
internal_speedup  = 2.0;


warmup_periods = 3;
sim_count          = 1;

sample_period  = 10000;  


routing_function = dor;
num_vcs     = 2;

priority = none;
traffic       = uniform; 

injection_rate = 0.1;
packet_size = 1;
injection_rate_uses_flits=1;

topology = mesh;

k  = 8;
n  = 2;

fer = 4;
ecc = link;
correctable = 0;

watch_out=-;
watch_file = watch.txt;

ecc = packet;

stats_out = examples/ecc_mesh88_config_0_0.100_packet_4.m;

END Configuration File: examples/ecc_mesh88_config_0_0.100_packet_4
Additional hops: 3
Adding flit 2334 as NACK at time 385
Reenqueueing errored packet 2334 at time 392
Additional hops: 11
Adding flit 2732 as NACK at time 460
Reenqueueing errored packet 2732 at time 477
Additional hops: 15
Adding flit 3637 as NACK at time 588
Reenqueueing errored packet 3637 at time 597
Additional hops: 23
Adding flit 4365 as NACK at time 723
Reenqueueing errored packet 4365 at time 740
Additional hops: 34
Adding flit 4764 as NACK at time 791
Reenqueueing errored packet 4764 at time 814
Additional hops: 45
Adding flit 5882 as NACK at time 963
Reenqueueing errored packet 5882 at time 986
Additional hops: 56
Adding flit 6562 as NACK at time 1072
Reenqueueing errored packet 6562 at time 1095
Additional hops: 60
Adding flit 8929 as NACK at time 1424
Reenqueueing errored packet 8929 at time 1433
Additional hops: 69
Adding flit 9492 as NACK at time 1523
Reenqueueing errored packet 9492 at time 1542
Additional hops: 75
Adding flit 9830 as NACK at time 1569
Reenqueueing errored packet 9830 at time 1582
Additional hops: 79
Adding flit 10336 as NACK at time 1643
Reenqueueing errored packet 10336 at time 1652
Additional hops: 90
Adding flit 12064 as NACK at time 1928
Reenqueueing errored packet 12064 at time 1951
Additional hops: 97
Adding flit 16934 as NACK at time 2678
Reenqueueing errored packet 16934 at time 2693
Additional hops: 100
Adding flit 17225 as NACK at time 2712
Reenqueueing errored packet 17225 at time 2719
Additional hops: 110
Adding flit 17256 as NACK at time 2738
Reenqueueing errored packet 17256 at time 2759
Additional hops: 115
Adding flit 20803 as NACK at time 3268
Reenqueueing errored packet 20803 at time 3279
Additional hops: 119
Adding flit 22064 as NACK at time 3463
Reenqueueing errored packet 22064 at time 3472
Additional hops: 122
Adding flit 22563 as NACK at time 3536
Reenqueueing errored packet 22563 at time 3543
Additional hops: 133
Adding flit 24647 as NACK at time 3892
Reenqueueing errored packet 24647 at time 3915
Additional hops: 139
Adding flit 25559 as NACK at time 4021
Reenqueueing errored packet 25559 at time 4034
Additional hops: 143
Adding flit 26601 as NACK at time 4181
Reenqueueing errored packet 26601 at time 4190
Additional hops: 153
Adding flit 27469 as NACK at time 4341
Reenqueueing errored packet 27469 at time 4362
Additional hops: 157
Adding flit 28415 as NACK at time 4475
Additional hops: 165
Adding flit 28347 as NACK at time 4478
Reenqueueing errored packet 28415 at time 4484
Reenqueueing errored packet 28347 at time 4495
Additional hops: 169
Adding flit 30158 as NACK at time 4750
Additional hops: 176
Adding flit 30128 as NACK at time 4756
Reenqueueing errored packet 30158 at time 4759
Reenqueueing errored packet 30128 at time 4771
Additional hops: 186
Adding flit 31170 as NACK at time 4930
Reenqueueing errored packet 31170 at time 4951
Additional hops: 192
Adding flit 32221 as NACK at time 5078
Reenqueueing errored packet 32221 at time 5091
Additional hops: 202
Adding flit 33383 as NACK at time 5260
Reenqueueing errored packet 33383 at time 5281
Additional hops: 211
Adding flit 36129 as NACK at time 5692
Reenqueueing errored packet 36129 at time 5711
Additional hops: 217
Adding flit 39355 as NACK at time 6178
Reenqueueing errored packet 39355 at time 6191
Additional hops: 225
Adding flit 40267 as NACK at time 6327
Reenqueueing errored packet 40267 at time 6344
Additional hops: 230
Adding flit 40892 as NACK at time 6421
Reenqueueing errored packet 40892 at time 6432
Additional hops: 235
Adding flit 41796 as NACK at time 6559
Reenqueueing errored packet 41796 at time 6570
Additional hops: 245
Adding flit 43460 as NACK at time 6832
Reenqueueing errored packet 43460 at time 6853
Additional hops: 253
Adding flit 43859 as NACK at time 6891
Reenqueueing errored packet 43859 at time 6908
Additional hops: 263
Adding flit 45402 as NACK at time 7136
Reenqueueing errored packet 45402 at time 7157
Additional hops: 272
Adding flit 48705 as NACK at time 7645
Reenqueueing errored packet 48705 at time 7664
Additional hops: 280
Adding flit 49240 as NACK at time 7726
Reenqueueing errored packet 49240 at time 7743
Additional hops: 285
Adding flit 52596 as NACK at time 8235
Reenqueueing errored packet 52596 at time 8246
Additional hops: 295
Adding flit 56447 as NACK at time 8858
Reenqueueing errored packet 56447 at time 8879
Additional hops: 300
Adding flit 58491 as NACK at time 9153
Reenqueueing errored packet 58491 at time 9164
Additional hops: 303
Adding flit 58601 as NACK at time 9165
Reenqueueing errored packet 58601 at time 9172
Additional hops: 312
Adding flit 58682 as NACK at time 9195
Reenqueueing errored packet 58682 at time 9214
Additional hops: 320
Adding flit 59805 as NACK at time 9363
Reenqueueing errored packet 59805 at time 9380
Additional hops: 327
Adding flit 63372 as NACK at time 9911
Reenqueueing errored packet 63372 at time 9926
Class 0:
Packet latency average = 21.0411
	minimum = 5
	maximum = 95
Network latency average = 21.0131
	minimum = 5
	maximum = 50
Slowest packet = 654
Flit latency average = 21.0131
	minimum = 5
	maximum = 50
Slowest flit = 31047
Fragmentation average = 0
	minimum = 0
	maximum = 0
Injected packet rate average = 0.100205
	minimum = 0.0927 (at node 12)
	maximum = 0.1077 (at node 59)
Accepted packet rate average = 0.0999984
	minimum = 0.0934 (at node 36)
	maximum = 0.1058 (at node 51)
Injected flit rate average = 0.100205
	minimum = 0.0927 (at node 12)
	maximum = 0.1077 (at node 59)
Accepted flit rate average= 0.0999984
	minimum = 0.0934 (at node 36)
	maximum = 0.1058 (at node 51)
Injected packet length average = 1
Accepted packet length average = 1
Total in-flight flits = 132 (0 measured)
latency change    = 1
throughput change = 1
Additional hops: 337
Adding flit 64457 as NACK at time 10092
Reenqueueing errored packet 64457 at time 10113
Additional hops: 343
Adding flit 66130 as NACK at time 10334
Reenqueueing errored packet 66130 at time 10347
Additional hops: 347
Adding flit 70134 as NACK at time 10953
Reenqueueing errored packet 70134 at time 10962
Additional hops: 352
Adding flit 72424 as NACK at time 11318
Reenqueueing errored packet 72424 at time 11329
Additional hops: 361
Adding flit 72806 as NACK at time 11391
Reenqueueing errored packet 72806 at time 11410
Additional hops: 365
Adding flit 74495 as NACK at time 11637
Reenqueueing errored packet 74495 at time 11646
Additional hops: 371
Adding flit 74939 as NACK at time 11713
Reenqueueing errored packet 74939 at time 11726
Additional hops: 380
Adding flit 75609 as NACK at time 11820
Reenqueueing errored packet 75609 at time 11839
Additional hops: 386
Adding flit 75880 as NACK at time 11853
Reenqueueing errored packet 75880 at time 11866
Additional hops: 395
Adding flit 76373 as NACK at time 11940
Reenqueueing errored packet 76373 at time 11959
Additional hops: 405
Adding flit 76581 as NACK at time 11971
Reenqueueing errored packet 76581 at time 11992
Additional hops: 408
Adding flit 77523 as NACK at time 12107
Reenqueueing errored packet 77523 at time 12114
Additional hops: 418
Adding flit 79666 as NACK at time 12463
Reenqueueing errored packet 79666 at time 12484
Additional hops: 428
Adding flit 81748 as NACK at time 12780
Reenqueueing errored packet 81748 at time 12801
Additional hops: 434
Adding flit 82695 as NACK at time 12917
Reenqueueing errored packet 82695 at time 12930
Additional hops: 439
Adding flit 83336 as NACK at time 13018
Reenqueueing errored packet 83336 at time 13029
Additional hops: 448
Adding flit 85015 as NACK at time 13289
Reenqueueing errored packet 85015 at time 13308
Additional hops: 452
Adding flit 87400 as NACK at time 13637
Reenqueueing errored packet 87400 at time 13646
Additional hops: 458
Adding flit 87470 as NACK at time 13653
Reenqueueing errored packet 87470 at time 13666
Additional hops: 468
Adding flit 88659 as NACK at time 13851
Reenqueueing errored packet 88659 at time 13872
Additional hops: 477
Adding flit 89300 as NACK at time 13958
Reenqueueing errored packet 89300 at time 13977
Additional hops: 489
Adding flit 89465 as NACK at time 13988
Additional hops: 498
Adding flit 89580 as NACK at time 13996
Reenqueueing errored packet 89465 at time 14013
Reenqueueing errored packet 89580 at time 14015
Additional hops: 504
Adding flit 89990 as NACK at time 14046
Reenqueueing errored packet 89990 at time 14059
Additional hops: 512
Adding flit 92207 as NACK at time 14396
Reenqueueing errored packet 92207 at time 14413
Additional hops: 522
Adding flit 95385 as NACK at time 14899
Additional hops: 532
Adding flit 95418 as NACK at time 14904
Reenqueueing errored packet 95385 at time 14920
Reenqueueing errored packet 95418 at time 14925
Additional hops: 535
Adding flit 96130 as NACK at time 14993
Reenqueueing errored packet 96130 at time 15000
Additional hops: 542
Adding flit 97188 as NACK at time 15164
Reenqueueing errored packet 97188 at time 15179
Additional hops: 549
Adding flit 100091 as NACK at time 15607
Reenqueueing errored packet 100091 at time 15622
Additional hops: 559
Adding flit 100578 as NACK at time 15689
Reenqueueing errored packet 100578 at time 15710
Additional hops: 566
Adding flit 102580 as NACK at time 16005
Reenqueueing errored packet 102580 at time 16020
Additional hops: 570
Adding flit 103630 as NACK at time 16155
Reenqueueing errored packet 103630 at time 16164
Additional hops: 576
Adding flit 104311 as NACK at time 16271
Reenqueueing errored packet 104311 at time 16284
Additional hops: 586
Adding flit 104607 as NACK at time 16331
Reenqueueing errored packet 104607 at time 16352
Additional hops: 589
Adding flit 105223 as NACK at time 16408
Reenqueueing errored packet 105223 at time 16415
Additional hops: 594
Adding flit 106784 as NACK at time 16670
Reenqueueing errored packet 106784 at time 16681
Additional hops: 605
Adding flit 107670 as NACK at time 16821
Reenqueueing errored packet 107670 at time 16844
Additional hops: 610
Adding flit 108845 as NACK at time 16985
Reenqueueing errored packet 108845 at time 16996
Additional hops: 618
Adding flit 111469 as NACK at time 17406
Reenqueueing errored packet 111469 at time 17423
Additional hops: 627
Adding flit 111605 as NACK at time 17428
Reenqueueing errored packet 111605 at time 17447
Additional hops: 636
Adding flit 111739 as NACK at time 17450
Reenqueueing errored packet 111739 at time 17469
Additional hops: 642
Adding flit 113220 as NACK at time 17664
Reenqueueing errored packet 113220 at time 17677
Additional hops: 649
Adding flit 113968 as NACK at time 17784
Reenqueueing errored packet 113968 at time 17799
Additional hops: 656
Adding flit 114145 as NACK at time 17813
Reenqueueing errored packet 114145 at time 17828
Additional hops: 670
Adding flit 116677 as NACK at time 18247
Reenqueueing errored packet 116677 at time 18276
Additional hops: 678
Adding flit 118058 as NACK at time 18456
Reenqueueing errored packet 118058 at time 18473
Additional hops: 688
Adding flit 118345 as NACK at time 18506
Reenqueueing errored packet 118345 at time 18527
Additional hops: 690
Adding flit 120902 as NACK at time 18881
Reenqueueing errored packet 120902 at time 18886
Additional hops: 693
Adding flit 123255 as NACK at time 19261
Reenqueueing errored packet 123255 at time 19268
Additional hops: 704
Adding flit 123755 as NACK at time 19361
Reenqueueing errored packet 123755 at time 19384
Additional hops: 709
Adding flit 127887 as NACK at time 19984
Reenqueueing errored packet 127887 at time 19995
Class 0:
Packet latency average = 21.0467
	minimum = 5
	maximum = 119
Network latency average = 21.0166
	minimum = 5
	maximum = 50
Slowest packet = 654
Flit latency average = 21.0166
	minimum = 5
	maximum = 50
Slowest flit = 31047
Fragmentation average = 0
	minimum = 0
	maximum = 0
Injected packet rate average = 0.100152
	minimum = 0.09585 (at node 12)
	maximum = 0.10575 (at node 18)
Accepted packet rate average = 0.100062
	minimum = 0.0957 (at node 46)
	maximum = 0.1043 (at node 1)
Injected flit rate average = 0.100152
	minimum = 0.09585 (at node 12)
	maximum = 0.10575 (at node 18)
Accepted flit rate average= 0.100062
	minimum = 0.0957 (at node 46)
	maximum = 0.1043 (at node 1)
Injected packet length average = 1
Accepted packet length average = 1
Total in-flight flits = 115 (0 measured)
latency change    = 0.000264672
throughput change = 0.000632422
Additional hops: 713
Adding flit 128877 as NACK at time 20142
Reenqueueing errored packet 128877 at time 20151
Additional hops: 719
Adding flit 129023 as NACK at time 20173
Reenqueueing errored packet 129023 at time 20186
Additional hops: 724
Adding flit 131561 as NACK at time 20573
Reenqueueing errored packet 131561 at time 20584
Additional hops: 729
Adding flit 132513 as NACK at time 20722
Reenqueueing errored packet 132513 at time 20733
Additional hops: 733
Adding flit 133458 as NACK at time 20871
Reenqueueing errored packet 133458 at time 20880
Additional hops: 739
Adding flit 133485 as NACK at time 20882
Reenqueueing errored packet 133485 at time 20895
Additional hops: 746
Adding flit 138824 as NACK at time 21702
Reenqueueing errored packet 138824 at time 21717
Additional hops: 749
Adding flit 142187 as NACK at time 22206
Reenqueueing errored packet 142187 at time 22213
Additional hops: 756
Adding flit 142948 as NACK at time 22333
Reenqueueing errored packet 142948 at time 22348
Additional hops: 761
Adding flit 144556 as NACK at time 22583
Reenqueueing errored packet 144556 at time 22594
Additional hops: 766
Adding flit 145751 as NACK at time 22762
Reenqueueing errored packet 145751 at time 22773
Additional hops: 773
Adding flit 146727 as NACK at time 22919
Reenqueueing errored packet 146727 at time 22934
Additional hops: 778
Adding flit 147116 as NACK at time 22973
Reenqueueing errored packet 147116 at time 22984
Additional hops: 784
Adding flit 148038 as NACK at time 23123
Reenqueueing errored packet 148038 at time 23136
Additional hops: 794
Adding flit 148298 as NACK at time 23175
Reenqueueing errored packet 148298 at time 23196
Additional hops: 806
Adding flit 148432 as NACK at time 23202
Reenqueueing errored packet 148432 at time 23227
Additional hops: 812
Adding flit 150447 as NACK at time 23508
Reenqueueing errored packet 150447 at time 23521
Additional hops: 821
Adding flit 150575 as NACK at time 23536
Reenqueueing errored packet 150575 at time 23555
Additional hops: 833
Adding flit 151059 as NACK at time 23620
Reenqueueing errored packet 151059 at time 23645
Additional hops: 840
Adding flit 151405 as NACK at time 23653
Additional hops: 850
Adding flit 151344 as NACK at time 23653
Reenqueueing errored packet 151405 at time 23668
Reenqueueing errored packet 151344 at time 23674
Additional hops: 855
Adding flit 152515 as NACK at time 23825
Reenqueueing errored packet 152515 at time 23836
Additional hops: 863
Adding flit 152696 as NACK at time 23864
Reenqueueing errored packet 152696 at time 23881
Additional hops: 869
Adding flit 153077 as NACK at time 23919
Reenqueueing errored packet 153077 at time 23932
Additional hops: 875
Adding flit 154565 as NACK at time 24161
Reenqueueing errored packet 154565 at time 24174
Additional hops: 878
Adding flit 155254 as NACK at time 24263
Reenqueueing errored packet 155254 at time 24270
Additional hops: 884
Adding flit 155342 as NACK at time 24288
Reenqueueing errored packet 155342 at time 24301
Additional hops: 890
Adding flit 157615 as NACK at time 24644
Reenqueueing errored packet 157615 at time 24657
Additional hops: 897
Adding flit 159000 as NACK at time 24873
Reenqueueing errored packet 159000 at time 24888
Additional hops: 906
Adding flit 159792 as NACK at time 25011
Additional hops: 914
Adding flit 159884 as NACK at time 25023
Reenqueueing errored packet 159792 at time 25030
Reenqueueing errored packet 159884 at time 25040
Additional hops: 926
Adding flit 166581 as NACK at time 26078
Reenqueueing errored packet 166581 at time 26103
Additional hops: 931
Adding flit 169663 as NACK at time 26540
Reenqueueing errored packet 169663 at time 26551
Additional hops: 937
Adding flit 170450 as NACK at time 26661
Reenqueueing errored packet 170450 at time 26674
Additional hops: 944
Adding flit 171271 as NACK at time 26794
Reenqueueing errored packet 171271 at time 26809
Additional hops: 947
Adding flit 172884 as NACK at time 27029
Reenqueueing errored packet 172884 at time 27036
Additional hops: 954
Adding flit 175850 as NACK at time 27513
Reenqueueing errored packet 175850 at time 27528
Additional hops: 959
Adding flit 181563 as NACK at time 28408
Reenqueueing errored packet 181563 at time 28419
Additional hops: 964
Adding flit 181846 as NACK at time 28458
Reenqueueing errored packet 181846 at time 28469
Additional hops: 972
Adding flit 183929 as NACK at time 28795
Reenqueueing errored packet 183929 at time 28812
Additional hops: 981
Adding flit 185782 as NACK at time 29089
Reenqueueing errored packet 185782 at time 29108
Additional hops: 990
Adding flit 188008 as NACK at time 29448
Reenqueueing errored packet 188008 at time 29467
Additional hops: 1000
Adding flit 190993 as NACK at time 29913
Reenqueueing errored packet 190993 at time 29934
Class 0:
Packet latency average = 20.9966
	minimum = 5
	maximum = 101
Network latency average = 20.971
	minimum = 5
	maximum = 50
Slowest packet = 127850
Flit latency average = 20.971
	minimum = 5
	maximum = 50
Slowest flit = 176631
Fragmentation average = 0
	minimum = 0
	maximum = 0
Injected packet rate average = 0.0995172
	minimum = 0.0907 (at node 4)
	maximum = 0.1068 (at node 19)
Accepted packet rate average = 0.099475
	minimum = 0.093 (at node 38)
	maximum = 0.1058 (at node 43)
Injected flit rate average = 0.0995172
	minimum = 0.0907 (at node 4)
	maximum = 0.1068 (at node 19)
Accepted flit rate average= 0.099475
	minimum = 0.093 (at node 38)
	maximum = 0.1058 (at node 43)
Injected packet length average = 1
Accepted packet length average = 1
Total in-flight flits = 142 (0 measured)
latency change    = 0.0023871
throughput change = 0.00589815
Warmed up ...Time used is 30000 cycles
Additional hops: 1008
Adding flit 191754 as NACK at time 30027
30043 | node59 | Enqueuing flit 192022 (packet 192022) at time 30043.
30043 | traffic_manager | Finding output VC for flit 192022:
30043 | traffic_manager |   Selected output VC 1.
30043 | network_0/router_7_3 | Adding VC range [0,1] at output port 0 for flit 192022 (input port 4, destination 44).
30043 | node59 | Generating lookahead routing info for flit 192022.
30043 | node59 | Injecting flit 192022 into subnet 0 at time 30043 with priority 0.
30044 | network_0/network_0_fchan_ingress59 | Beginning channel traversal for flit 192022 with delay 1.
Reenqueueing errored packet 191754 at time 30044
30044 | network_0/network_0_fchan_ingress59 | Completed channel traversal for flit 192022.
30045 | network_0/router_7_3 | Received flit 192022 from channel at input 4.
30045 | network_0/router_7_3 | Adding flit 192022 to VC 1 at input 4 (state: idle, empty).
30045 | network_0/router_7_3 | Using precomputed lookahead routing information for VC 1 at input 4 (front: 192022).
30045 | network_0/router_7_3/buf_4/vc_1 | Changing state from idle to vc_alloc.
30045 | network_0/router_7_3 | Beginning VC allocation for VC 1 at input 4 (front: 192022).
30045 | network_0/router_7_3 |   Requesting VC 0 at output 0 (in_pri: 0, out_pri: 0).
30045 | network_0/router_7_3 |   Requesting VC 1 at output 0 (in_pri: 0, out_pri: 0).
30045 | network_0/router_7_3/vc_allocator | Input requests = [ 9 -> [ 0@0 1@0 ]  ], output requests = [ 0 -> [ 9@0 ]  1 -> [ 9@0 ]  ].
30045 | network_0/router_7_3/vc_allocator | Input grants = [ 9 -> 1  ], output grants = [ 1 -> 9  ].
30045 | network_0/router_7_3 | Assigning VC 1 at output 0 to VC 1 at input 4.
30045 | network_0/router_7_3 | Completed VC allocation for VC 1 at input 4 (front: 192022).
30045 | network_0/router_7_3 |   Acquiring assigned VC 1 at output 0.
30045 | network_0/router_7_3/buf_4/vc_1 | Changing state from vc_alloc to active.
30045 | network_0/router_7_3 | Beginning switch allocation for VC 1 at input 4 (front: 192022).
30045 | network_0/router_7_3 |   Requesting output 0.0 (non-spec, pri: 0).
30045 | network_0/router_7_3/sw_allocator | Input requests = [ 4 -> [ 0@0 ]  ], output requests = [ 0 -> [ 4@0 ]  ].
30045 | network_0/router_7_3/sw_allocator | Input grants = [ 4 -> 0  ], output grants = [ 0 -> 4  ].
30045 | network_0/router_7_3 | Assigning output 0.0 to VC 1 at input 4.0.
30045 | network_0/router_7_3 | Completed switch allocation for VC 1 at input 4 (front: 192022).
30045 | network_0/router_7_3 |   Scheduling switch connection from input 4.0 to output 0.0.
30045 | network_0/router_7_3 | Updating lookahead routing information for flit 192022.
30045 | network_0/router_7_4 | Adding VC range [0,1] at output port 3 for flit 192022 (input port 1, destination 44).
30046 | network_0/router_7_3 | Beginning crossbar traversal for flit 192022 from input 4.0 to output 0.0.
30046 | network_0/router_7_3 | Completed crossbar traversal for flit 192022 from input 4.0 to output 0.0.
30046 | network_0/router_7_3 | Buffering flit 192022 at output 0.
30046 | network_0/router_7_3 | Sending flit 192022 to channel at output 0.
30047 | network_0/network_0_fchan_236 | Beginning channel traversal for flit 192022 with delay 1.
30047 | network_0/network_0_fchan_236 | Completed channel traversal for flit 192022.
30048 | network_0/router_7_4 | Received flit 192022 from channel at input 1.
30048 | network_0/router_7_4 | Adding flit 192022 to VC 1 at input 1 (state: idle, empty).
30048 | network_0/router_7_4 | Using precomputed lookahead routing information for VC 1 at input 1 (front: 192022).
30048 | network_0/router_7_4/buf_1/vc_1 | Changing state from idle to vc_alloc.
30048 | network_0/router_7_4 | Beginning VC allocation for VC 1 at input 1 (front: 192022).
30048 | network_0/router_7_4 |   Requesting VC 0 at output 3 (in_pri: 0, out_pri: 0).
30048 | network_0/router_7_4 |   Requesting VC 1 at output 3 (in_pri: 0, out_pri: 0).
30048 | network_0/router_7_4/vc_allocator | Input requests = [ 3 -> [ 6@0 7@0 ]  9 -> [ 0@0 1@0 ]  ], output requests = [ 0 -> [ 9@0 ]  1 -> [ 9@0 ]  6 -> [ 3@0 ]  7 -> [ 3@0 ]  ].
30048 | network_0/router_7_4/vc_allocator | Input grants = [ 3 -> 6  9 -> 0  ], output grants = [ 0 -> 9  6 -> 3  ].
30048 | network_0/router_7_4 | Assigning VC 0 at output 3 to VC 1 at input 1.
30048 | network_0/router_7_4 | Completed VC allocation for VC 1 at input 1 (front: 192022).
30048 | network_0/router_7_4 |   Acquiring assigned VC 0 at output 3.
30048 | network_0/router_7_4/buf_1/vc_1 | Changing state from vc_alloc to active.
30048 | network_0/router_7_4 | Beginning switch allocation for VC 1 at input 1 (front: 192022).
30048 | network_0/router_7_4 |   Requesting output 3.0 (non-spec, pri: 0).
30048 | network_0/router_7_4/sw_allocator | Input requests = [ 1 -> [ 3@0 ]  4 -> [ 0@0 ]  ], output requests = [ 0 -> [ 4@0 ]  3 -> [ 1@0 ]  ].
30048 | network_0/router_7_4/sw_allocator | Input grants = [ 1 -> 3  4 -> 0  ], output grants = [ 0 -> 4  3 -> 1  ].
30048 | network_0/router_7_4 | Assigning output 3.0 to VC 1 at input 1.0.
30048 | network_0/router_7_4 | Completed switch allocation for VC 1 at input 1 (front: 192022).
30048 | network_0/router_7_4 |   Scheduling switch connection from input 1.0 to output 3.0.
30048 | network_0/router_7_4 | Updating lookahead routing information for flit 192022.
30048 | network_0/router_6_4 | Adding VC range [0,1] at output port 3 for flit 192022 (input port 2, destination 44).
30049 | network_0/router_7_4 | Beginning crossbar traversal for flit 192022 from input 1.0 to output 3.0.
30049 | network_0/router_7_4 | Completed crossbar traversal for flit 192022 from input 1.0 to output 3.0.
30049 | network_0/router_7_4 | Buffering flit 192022 at output 3.
30049 | network_0/router_7_4 | Sending flit 192022 to channel at output 3.
30050 | network_0/network_0_fchan_243 | Beginning channel traversal for flit 192022 with delay 1.
30050 | network_0/network_0_fchan_243 | Completed channel traversal for flit 192022.
30051 | network_0/router_6_4 | Received flit 192022 from channel at input 2.
30051 | network_0/router_6_4 | Adding flit 192022 to VC 0 at input 2 (state: idle, empty).
30051 | network_0/router_6_4 | Using precomputed lookahead routing information for VC 0 at input 2 (front: 192022).
30051 | network_0/router_6_4/buf_2/vc_0 | Changing state from idle to vc_alloc.
30051 | network_0/router_6_4 | Beginning VC allocation for VC 0 at input 2 (front: 192022).
30051 | network_0/router_6_4 |   Requesting VC 0 at output 3 (in_pri: 0, out_pri: 0).
30051 | network_0/router_6_4 |   Requesting VC 1 at output 3 (in_pri: 0, out_pri: 0).
30051 | network_0/router_6_4/vc_allocator | Input requests = [ 4 -> [ 6@0 7@0 ]  ], output requests = [ 6 -> [ 4@0 ]  7 -> [ 4@0 ]  ].
30051 | network_0/router_6_4/vc_allocator | Input grants = [ 4 -> 7  ], output grants = [ 7 -> 4  ].
30051 | network_0/router_6_4 | Assigning VC 1 at output 3 to VC 0 at input 2.
30051 | network_0/router_6_4 | Completed VC allocation for VC 0 at input 2 (front: 192022).
30051 | network_0/router_6_4 |   Acquiring assigned VC 1 at output 3.
30051 | network_0/router_6_4/buf_2/vc_0 | Changing state from vc_alloc to active.
30051 | network_0/router_6_4 | Beginning switch allocation for VC 0 at input 2 (front: 192022).
30051 | network_0/router_6_4 |   Requesting output 3.0 (non-spec, pri: 0).
30051 | network_0/router_6_4/sw_allocator | Input requests = [ 2 -> [ 3@0 ]  ], output requests = [ 3 -> [ 2@0 ]  ].
30051 | network_0/router_6_4/sw_allocator | Input grants = [ 2 -> 3  ], output grants = [ 3 -> 2  ].
30051 | network_0/router_6_4 | Assigning output 3.0 to VC 0 at input 2.0.
30051 | network_0/router_6_4 | Completed switch allocation for VC 0 at input 2 (front: 192022).
30051 | network_0/router_6_4 |   Scheduling switch connection from input 2.0 to output 3.0.
30051 | network_0/router_6_4 | Updating lookahead routing information for flit 192022.
30051 | network_0/router_5_4 | Adding VC range [0,1] at output port 4 for flit 192022 (input port 2, destination 44).
30052 | network_0/router_6_4 | Beginning crossbar traversal for flit 192022 from input 2.0 to output 3.0.
30052 | network_0/router_6_4 | Completed crossbar traversal for flit 192022 from input 2.0 to output 3.0.
30052 | network_0/router_6_4 | Buffering flit 192022 at output 3.
30052 | network_0/router_6_4 | Sending flit 192022 to channel at output 3.
30053 | network_0/network_0_fchan_211 | Beginning channel traversal for flit 192022 with delay 1.
30053 | network_0/network_0_fchan_211 | Completed channel traversal for flit 192022.
30054 | network_0/router_5_4 | Received flit 192022 from channel at input 2.
30054 | network_0/router_5_4 | Adding flit 192022 to VC 1 at input 2 (state: idle, empty).
30054 | network_0/router_5_4 | Using precomputed lookahead routing information for VC 1 at input 2 (front: 192022).
30054 | network_0/router_5_4/buf_2/vc_1 | Changing state from idle to vc_alloc.
30054 | network_0/router_5_4 | Beginning VC allocation for VC 1 at input 2 (front: 192022).
30054 | network_0/router_5_4 |   Requesting VC 0 at output 4 (in_pri: 0, out_pri: 0).
30054 | network_0/router_5_4 |   Requesting VC 1 at output 4 (in_pri: 0, out_pri: 0).
30054 | network_0/router_5_4/vc_allocator | Input requests = [ 5 -> [ 8@0 9@0 ]  ], output requests = [ 8 -> [ 5@0 ]  9 -> [ 5@0 ]  ].
30054 | network_0/router_5_4/vc_allocator | Input grants = [ 5 -> 9  ], output grants = [ 9 -> 5  ].
30054 | network_0/router_5_4 | Assigning VC 1 at output 4 to VC 1 at input 2.
30054 | network_0/router_5_4 | Completed VC allocation for VC 1 at input 2 (front: 192022).
30054 | network_0/router_5_4 |   Acquiring assigned VC 1 at output 4.
30054 | network_0/router_5_4/buf_2/vc_1 | Changing state from vc_alloc to active.
30054 | network_0/router_5_4 | Beginning switch allocation for VC 1 at input 2 (front: 192022).
30054 | network_0/router_5_4 |   Requesting output 4.0 (non-spec, pri: 0).
30054 | network_0/router_5_4/sw_allocator | Input requests = [ 2 -> [ 4@0 ]  ], output requests = [ 4 -> [ 2@0 ]  ].
30054 | network_0/router_5_4/sw_allocator | Input grants = [ 2 -> 4  ], output grants = [ 4 -> 2  ].
30054 | network_0/router_5_4 | Assigning output 4.0 to VC 1 at input 2.0.
30054 | network_0/router_5_4 | Completed switch allocation for VC 1 at input 2 (front: 192022).
30054 | network_0/router_5_4 |   Scheduling switch connection from input 2.0 to output 4.0.
30055 | network_0/router_5_4 | Beginning crossbar traversal for flit 192022 from input 2.0 to output 4.0.
30055 | network_0/router_5_4 | Completed crossbar traversal for flit 192022 from input 2.0 to output 4.0.
30055 | network_0/router_5_4 | Buffering flit 192022 at output 4.
30055 | network_0/router_5_4 | Sending flit 192022 to channel at output 4.
30056 | network_0/network_0_fchan_egress44 | Beginning channel traversal for flit 192022 with delay 1.
30056 | network_0/network_0_fchan_egress44 | Completed channel traversal for flit 192022.
30057 | node44 | Ejecting flit 192022 (packet 192022) from VC 1.
30057 | node44 | Injecting credit for VC 1 into subnet 0.
30057 | node44 | Retiring flit 192022 (packet 192022, src = 59, dest = 44, hops = 4, flat = 14).
30057 | node44 | Retiring packet 192022 (plat = 14, nlat = 14, frag = 0, src = 59, dest = 44).
Additional hops: 1017
Adding flit 192309 as NACK at time 30118
Reenqueueing errored packet 192309 at time 30137
Additional hops: 1023
Adding flit 193696 as NACK at time 30325
Reenqueueing errored packet 193696 at time 30338
Additional hops: 1033
Adding flit 194473 as NACK at time 30458
Reenqueueing errored packet 194473 at time 30479
Additional hops: 1035
Adding flit 198071 as NACK at time 30995
Reenqueueing errored packet 198071 at time 31000
Additional hops: 1041
Adding flit 199949 as NACK at time 31304
Reenqueueing errored packet 199949 at time 31317
Additional hops: 1051
Adding flit 201419 as NACK at time 31538
Additional hops: 1064
Adding flit 201464 as NACK at time 31555
Reenqueueing errored packet 201419 at time 31559
Reenqueueing errored packet 201464 at time 31582
Additional hops: 1071
Adding flit 202752 as NACK at time 31745
Reenqueueing errored packet 202752 at time 31760
Additional hops: 1075
Adding flit 204846 as NACK at time 32060
Reenqueueing errored packet 204846 at time 32069
Additional hops: 1082
Adding flit 205024 as NACK at time 32094
Reenqueueing errored packet 205024 at time 32109
Additional hops: 1090
Adding flit 206551 as NACK at time 32337
Reenqueueing errored packet 206551 at time 32354
Additional hops: 1098
Adding flit 206676 as NACK at time 32359
Reenqueueing errored packet 206676 at time 32376
Additional hops: 1104
Adding flit 210229 as NACK at time 32906
Reenqueueing errored packet 210229 at time 32919
Additional hops: 1109
Adding flit 210688 as NACK at time 32971
Reenqueueing errored packet 210688 at time 32982
Additional hops: 1118
Adding flit 211170 as NACK at time 33053
Reenqueueing errored packet 211170 at time 33072
Additional hops: 1127
Adding flit 211407 as NACK at time 33095
Reenqueueing errored packet 211407 at time 33114
Additional hops: 1139
Adding flit 211574 as NACK at time 33128
Reenqueueing errored packet 211574 at time 33153
Additional hops: 1145
Adding flit 215258 as NACK at time 33668
Additional hops: 1155
Adding flit 215196 as NACK at time 33669
Reenqueueing errored packet 215258 at time 33681
Reenqueueing errored packet 215196 at time 33690
Additional hops: 1161
Adding flit 216067 as NACK at time 33793
Reenqueueing errored packet 216067 at time 33806
Additional hops: 1172
Adding flit 216419 as NACK at time 33863
Reenqueueing errored packet 216419 at time 33886
Additional hops: 1180
Adding flit 218533 as NACK at time 34186
Reenqueueing errored packet 218533 at time 34203
Additional hops: 1183
Adding flit 219429 as NACK at time 34310
Reenqueueing errored packet 219429 at time 34317
Additional hops: 1193
Adding flit 221064 as NACK at time 34584
Reenqueueing errored packet 221064 at time 34605
Additional hops: 1203
Adding flit 227343 as NACK at time 35567
Reenqueueing errored packet 227343 at time 35588
Additional hops: 1216
Adding flit 235840 as NACK at time 36907
Reenqueueing errored packet 235840 at time 36934
Additional hops: 1220
Adding flit 236478 as NACK at time 36982
Additional hops: 1223
Adding flit 236531 as NACK at time 36987
Reenqueueing errored packet 236478 at time 36991
Reenqueueing errored packet 236531 at time 36994
Additional hops: 1231
Adding flit 236970 as NACK at time 37072
Reenqueueing errored packet 236970 at time 37089
Additional hops: 1238
Adding flit 237630 as NACK at time 37171
Reenqueueing errored packet 237630 at time 37186
Additional hops: 1250
Adding flit 238590 as NACK at time 37336
Reenqueueing errored packet 238590 at time 37361
Additional hops: 1255
Adding flit 239455 as NACK at time 37456
Reenqueueing errored packet 239455 at time 37467
Additional hops: 1267
Adding flit 240821 as NACK at time 37685
Reenqueueing errored packet 240821 at time 37710
Additional hops: 1277
Adding flit 241211 as NACK at time 37744
Reenqueueing errored packet 241211 at time 37765
Additional hops: 1286
Adding flit 241963 as NACK at time 37857
Reenqueueing errored packet 241963 at time 37876
Additional hops: 1292
Adding flit 242673 as NACK at time 37958
Reenqueueing errored packet 242673 at time 37971
Additional hops: 1299
Adding flit 246523 as NACK at time 38563
Reenqueueing errored packet 246523 at time 38578
Additional hops: 1307
Adding flit 247057 as NACK at time 38646
Reenqueueing errored packet 247057 at time 38663
Additional hops: 1310
Adding flit 248375 as NACK at time 38849
Reenqueueing errored packet 248375 at time 38856
Additional hops: 1315
Adding flit 250155 as NACK at time 39132
Reenqueueing errored packet 250155 at time 39143
Additional hops: 1320
Adding flit 251901 as NACK at time 39408
Reenqueueing errored packet 251901 at time 39419
Class 0:
Packet latency average = 21.0246
	minimum = 5
	maximum = 112
Network latency average = 20.9974
	minimum = 5
	maximum = 52
Slowest packet = 191745
Flit latency average = 21.0045
	minimum = 5
	maximum = 52
Slowest flit = 248597
Fragmentation average = 0
	minimum = 0
	maximum = 0
Injected packet rate average = 0.100069
	minimum = 0.0938 (at node 62)
	maximum = 0.1049 (at node 12)
Accepted packet rate average = 0.100083
	minimum = 0.0923 (at node 21)
	maximum = 0.1059 (at node 28)
Injected flit rate average = 0.100069
	minimum = 0.0938 (at node 62)
	maximum = 0.1049 (at node 12)
Accepted flit rate average= 0.100083
	minimum = 0.0923 (at node 21)
	maximum = 0.1059 (at node 28)
Injected packet length average = 1
Accepted packet length average = 1
Total in-flight flits = 133 (133 measured)
latency change    = 0.0013329
throughput change = 0.0060731
Additional hops: 1331
Adding flit 255721 as NACK at time 40031
Reenqueueing errored packet 255721 at time 40054
Additional hops: 1334
Adding flit 258147 as NACK at time 40407
Reenqueueing errored packet 258147 at time 40414
Additional hops: 1339
Adding flit 261217 as NACK at time 40889
Reenqueueing errored packet 261217 at time 40900
Additional hops: 1346
Adding flit 263095 as NACK at time 41192
Reenqueueing errored packet 263095 at time 41207
Additional hops: 1353
Adding flit 263315 as NACK at time 41226
Reenqueueing errored packet 263315 at time 41241
Additional hops: 1362
Adding flit 265941 as NACK at time 41633
Reenqueueing errored packet 265941 at time 41652
Additional hops: 1365
Adding flit 267002 as NACK at time 41783
Reenqueueing errored packet 267002 at time 41790
Additional hops: 1379
Adding flit 267227 as NACK at time 41853
Reenqueueing errored packet 267227 at time 41882
Additional hops: 1383
Adding flit 268095 as NACK at time 41960
Reenqueueing errored packet 268095 at time 41969
Additional hops: 1387
Adding flit 269729 as NACK at time 42218
Reenqueueing errored packet 269729 at time 42227
Additional hops: 1392
Adding flit 273219 as NACK at time 42772
Reenqueueing errored packet 273219 at time 42783
Additional hops: 1399
Adding flit 274361 as NACK at time 42953
Additional hops: 1408
Adding flit 274371 as NACK at time 42961
Reenqueueing errored packet 274361 at time 42968
Reenqueueing errored packet 274371 at time 42980
Additional hops: 1416
Adding flit 276872 as NACK at time 43348
Reenqueueing errored packet 276872 at time 43365
Additional hops: 1426
Adding flit 278380 as NACK at time 43597
Reenqueueing errored packet 278380 at time 43618
Additional hops: 1431
Adding flit 278747 as NACK at time 43638
Reenqueueing errored packet 278747 at time 43649
Additional hops: 1442
Adding flit 280224 as NACK at time 43890
Reenqueueing errored packet 280224 at time 43913
Additional hops: 1451
Adding flit 280911 as NACK at time 43991
Reenqueueing errored packet 280911 at time 44010
Additional hops: 1456
Adding flit 282518 as NACK at time 44228
Reenqueueing errored packet 282518 at time 44239
Additional hops: 1461
Adding flit 283934 as NACK at time 44446
Reenqueueing errored packet 283934 at time 44457
Additional hops: 1469
Adding flit 286054 as NACK at time 44790
Reenqueueing errored packet 286054 at time 44807
Additional hops: 1471
Adding flit 291063 as NACK at time 45560
Reenqueueing errored packet 291063 at time 45565
Additional hops: 1477
Adding flit 292441 as NACK at time 45782
Reenqueueing errored packet 292441 at time 45795
Additional hops: 1484
Adding flit 297449 as NACK at time 46561
Reenqueueing errored packet 297449 at time 46576
Additional hops: 1492
Adding flit 297902 as NACK at time 46639
Reenqueueing errored packet 297902 at time 46656
Additional hops: 1503
Adding flit 302151 as NACK at time 47307
Reenqueueing errored packet 302151 at time 47330
Additional hops: 1511
Adding flit 305867 as NACK at time 47868
Reenqueueing errored packet 305867 at time 47885
Additional hops: 1517
Adding flit 306889 as NACK at time 48034
Reenqueueing errored packet 306889 at time 48047
Additional hops: 1520
Adding flit 307039 as NACK at time 48048
Reenqueueing errored packet 307039 at time 48055
Additional hops: 1533
Adding flit 308541 as NACK at time 48317
Reenqueueing errored packet 308541 at time 48344
Additional hops: 1543
Adding flit 309316 as NACK at time 48426
Reenqueueing errored packet 309316 at time 48447
Additional hops: 1551
Adding flit 313343 as NACK at time 49047
Additional hops: 1563
Adding flit 313350 as NACK at time 49059
Reenqueueing errored packet 313343 at time 49064
Reenqueueing errored packet 313350 at time 49084
Additional hops: 1566
Adding flit 315689 as NACK at time 49406
Reenqueueing errored packet 315689 at time 49413
Additional hops: 1568
Adding flit 317397 as NACK at time 49673
Reenqueueing errored packet 317397 at time 49678
Class 0:
Packet latency average = 21.0286
	minimum = 5
	maximum = 117
Network latency average = 21.0043
	minimum = 5
	maximum = 52
Slowest packet = 191745
Flit latency average = 21.0079
	minimum = 5
	maximum = 52
Slowest flit = 248597
Fragmentation average = 0
	minimum = 0
	maximum = 0
Injected packet rate average = 0.0999242
	minimum = 0.0948 (at node 34)
	maximum = 0.10525 (at node 38)
Accepted packet rate average = 0.0999172
	minimum = 0.0929 (at node 21)
	maximum = 0.10495 (at node 28)
Injected flit rate average = 0.0999242
	minimum = 0.0948 (at node 34)
	maximum = 0.10525 (at node 38)
Accepted flit rate average= 0.0999172
	minimum = 0.0929 (at node 21)
	maximum = 0.10495 (at node 28)
Injected packet length average = 1
Accepted packet length average = 1
Total in-flight flits = 151 (151 measured)
latency change    = 0.000190906
throughput change = 0.00165762
Additional hops: 1574
Adding flit 320336 as NACK at time 50144
Reenqueueing errored packet 320336 at time 50157
Additional hops: 1580
Adding flit 322644 as NACK at time 50505
Reenqueueing errored packet 322644 at time 50518
Additional hops: 1588
Adding flit 322772 as NACK at time 50532
Reenqueueing errored packet 322772 at time 50549
Additional hops: 1593
Adding flit 324154 as NACK at time 50743
Reenqueueing errored packet 324154 at time 50754
Additional hops: 1599
Adding flit 325318 as NACK at time 50921
Reenqueueing errored packet 325318 at time 50934
Additional hops: 1607
Adding flit 326444 as NACK at time 51105
Reenqueueing errored packet 326444 at time 51122
Additional hops: 1618
Adding flit 327190 as NACK at time 51226
Reenqueueing errored packet 327190 at time 51249
Additional hops: 1623
Adding flit 328522 as NACK at time 51423
Reenqueueing errored packet 328522 at time 51434
Additional hops: 1633
Adding flit 328567 as NACK at time 51447
Reenqueueing errored packet 328567 at time 51468
Additional hops: 1640
Adding flit 329493 as NACK at time 51582
Reenqueueing errored packet 329493 at time 51597
Additional hops: 1643
Adding flit 329679 as NACK at time 51599
Reenqueueing errored packet 329679 at time 51606
Additional hops: 1652
Adding flit 332817 as NACK at time 52100
Reenqueueing errored packet 332817 at time 52119
Additional hops: 1662
Adding flit 334369 as NACK at time 52346
Reenqueueing errored packet 334369 at time 52367
Additional hops: 1667
Adding flit 335027 as NACK at time 52436
Reenqueueing errored packet 335027 at time 52447
Additional hops: 1677
Adding flit 336396 as NACK at time 52670
Reenqueueing errored packet 336396 at time 52691
Additional hops: 1687
Adding flit 338363 as NACK at time 52980
Reenqueueing errored packet 338363 at time 53001
Additional hops: 1690
Adding flit 344637 as NACK at time 53958
Reenqueueing errored packet 344637 at time 53965
Additional hops: 1694
Adding flit 346000 as NACK at time 54184
Reenqueueing errored packet 346000 at time 54193
Additional hops: 1703
Adding flit 346885 as NACK at time 54345
Reenqueueing errored packet 346885 at time 54364
Additional hops: 1711
Adding flit 349753 as NACK at time 54792
Reenqueueing errored packet 349753 at time 54809
Additional hops: 1718
Adding flit 351933 as NACK at time 55124
Reenqueueing errored packet 351933 at time 55139
Additional hops: 1723
Adding flit 352808 as NACK at time 55247
Reenqueueing errored packet 352808 at time 55258
Additional hops: 1725
Adding flit 354688 as NACK at time 55534
Reenqueueing errored packet 354688 at time 55539
Additional hops: 1732
Adding flit 355925 as NACK at time 55739
Reenqueueing errored packet 355925 at time 55754
Additional hops: 1742
Adding flit 359301 as NACK at time 56277
Reenqueueing errored packet 359301 at time 56298
Additional hops: 1752
Adding flit 359614 as NACK at time 56325
Reenqueueing errored packet 359614 at time 56346
Additional hops: 1761
Adding flit 366666 as NACK at time 57428
Reenqueueing errored packet 366666 at time 57447
Additional hops: 1771
Adding flit 366862 as NACK at time 57463
Additional hops: 1778
Adding flit 367034 as NACK at time 57481
Reenqueueing errored packet 366862 at time 57484
Reenqueueing errored packet 367034 at time 57496
Additional hops: 1780
Adding flit 367419 as NACK at time 57528
Reenqueueing errored packet 367419 at time 57533
Additional hops: 1785
Adding flit 368324 as NACK at time 57674
Reenqueueing errored packet 368324 at time 57685
Additional hops: 1792
Adding flit 368440 as NACK at time 57700
Reenqueueing errored packet 368440 at time 57715
Additional hops: 1805
Adding flit 371459 as NACK at time 58193
Additional hops: 1814
Adding flit 371535 as NACK at time 58195
Additional hops: 1817
Adding flit 371726 as NACK at time 58209
Reenqueueing errored packet 371535 at time 58214
Reenqueueing errored packet 371726 at time 58216
Reenqueueing errored packet 371459 at time 58220
Additional hops: 1822
Adding flit 372314 as NACK at time 58306
Reenqueueing errored packet 372314 at time 58317
Additional hops: 1828
Adding flit 373154 as NACK at time 58440
Reenqueueing errored packet 373154 at time 58453
Additional hops: 1836
Adding flit 373664 as NACK at time 58529
Reenqueueing errored packet 373664 at time 58546
Additional hops: 1842
Adding flit 374037 as NACK at time 58583
Reenqueueing errored packet 374037 at time 58596
Additional hops: 1850
Adding flit 375147 as NACK at time 58758
Reenqueueing errored packet 375147 at time 58775
Additional hops: 1863
Adding flit 376507 as NACK at time 58979
Reenqueueing errored packet 376507 at time 59006
Additional hops: 1876
Adding flit 376801 as NACK at time 59025
Reenqueueing errored packet 376801 at time 59052
Additional hops: 1883
Adding flit 378711 as NACK at time 59314
Additional hops: 1887
Adding flit 378809 as NACK at time 59321
Reenqueueing errored packet 378711 at time 59329
Reenqueueing errored packet 378809 at time 59330
Additional hops: 1896
Adding flit 379285 as NACK at time 59415
Reenqueueing errored packet 379285 at time 59434
Additional hops: 1904
Adding flit 379793 as NACK at time 59491
Reenqueueing errored packet 379793 at time 59508
Additional hops: 1912
Adding flit 380820 as NACK at time 59647
Reenqueueing errored packet 380820 at time 59664
Class 0:
Packet latency average = 21.0102
	minimum = 5
	maximum = 117
Network latency average = 20.9842
	minimum = 5
	maximum = 52
Slowest packet = 191745
Flit latency average = 20.9866
	minimum = 5
	maximum = 52
Slowest flit = 248597
Fragmentation average = 0
	minimum = 0
	maximum = 0
Injected packet rate average = 0.0997911
	minimum = 0.0966333 (at node 60)
	maximum = 0.103333 (at node 26)
Accepted packet rate average = 0.0997917
	minimum = 0.0947 (at node 21)
	maximum = 0.105033 (at node 52)
Injected flit rate average = 0.0997911
	minimum = 0.0966333 (at node 60)
	maximum = 0.103333 (at node 26)
Accepted flit rate average= 0.0997917
	minimum = 0.0947 (at node 21)
	maximum = 0.105033 (at node 52)
Injected packet length average = 1
Accepted packet length average = 1
Total in-flight flits = 141 (141 measured)
latency change    = 0.000875727
throughput change = 0.00125783
Draining all recorded packets ...
Draining remaining packets ...
Time taken is 60073 cycles
====== Overall Traffic Statistics ======
====== Traffic class 0 ======
Packet latency average = 21.0136 (1 samples)
	minimum = 5 (1 samples)
	maximum = 117 (1 samples)
Network latency average = 20.9876 (1 samples)
	minimum = 5 (1 samples)
	maximum = 52 (1 samples)
Flit latency average = 20.9914 (1 samples)
	minimum = 5 (1 samples)
	maximum = 52 (1 samples)
Fragmentation average = 0 (1 samples)
	minimum = 0 (1 samples)
	maximum = 0 (1 samples)
Injected packet rate average = 0.0997911 (1 samples)
	minimum = 0.0966333 (1 samples)
	maximum = 0.103333 (1 samples)
Accepted packet rate average = 0.0997917 (1 samples)
	minimum = 0.0947 (1 samples)
	maximum = 0.105033 (1 samples)
Injected flit rate average = 0.0997911 (1 samples)
	minimum = 0.0966333 (1 samples)
	maximum = 0.103333 (1 samples)
Accepted flit rate average = 0.0997917 (1 samples)
	minimum = 0.0947 (1 samples)
	maximum = 0.105033 (1 samples)
Injected packet size average = 1 (1 samples)
Accepted packet size average = 1 (1 samples)
Hops average = 6.25552 (1 samples)
Total run time 99.795
