BEGIN Configuration File: examples/ecc_mesh88_config_0_0.550_packet_4
// $Id$

// Copyright (c) 2007-2015, Trustees of The Leland Stanford Junior University
// All rights reserved.
//
// Redistribution and use in source and binary forms, with or without
// modification, are permitted provided that the following conditions are met:
//
// Redistributions of source code must retain the above copyright notice, this
// list of conditions and the following disclaimer.
// Redistributions in binary form must reproduce the above copyright notice,
// this list of conditions and the following disclaimer in the documentation
// and/or other materials provided with the distribution.
//
// THIS SOFTWARE IS PROVIDED BY THE COPYRIGHT HOLDERS AND CONTRIBUTORS "AS IS"
// AND ANY EXPRESS OR IMPLIED WARRANTIES, INCLUDING, BUT NOT LIMITED TO, THE
// IMPLIED WARRANTIES OF MERCHANTABILITY AND FITNESS FOR A PARTICULAR PURPOSE
// ARE DISCLAIMED. IN NO EVENT SHALL THE COPYRIGHT OWNER OR CONTRIBUTORS BE
// LIABLE FOR ANY DIRECT, INDIRECT, INCIDENTAL, SPECIAL, EXEMPLARY, OR
// CONSEQUENTIAL DAMAGES (INCLUDING, BUT NOT LIMITED TO, PROCUREMENT OF
// SUBSTITUTE GOODS OR SERVICES; LOSS OF USE, DATA, OR PROFITS; OR BUSINESS
// INTERRUPTION) HOWEVER CAUSED AND ON ANY THEORY OF LIABILITY, WHETHER IN
// CONTRACT, STRICT LIABILITY, OR TORT (INCLUDING NEGLIGENCE OR OTHERWISE)
// ARISING IN ANY WAY OUT OF THE USE OF THIS SOFTWARE, EVEN IF ADVISED OF THE
// POSSIBILITY OF SUCH DAMAGE.

// Dragonfly
//




vc_buf_size = 256;


wait_for_tail_credit = 0;

//
// Router architecture
//
vc_allocator = separable_input_first; 
sw_allocator = separable_input_first;
alloc_iters  = 1;

credit_delay   = 2;
routing_delay  = 0;
vc_alloc_delay = 1;
sw_alloc_delay = 1;
st_final_delay = 1;

input_speedup     = 1;
output_speedup    = 1;
internal_speedup  = 2.0;


warmup_periods = 3;
sim_count          = 1;

sample_period  = 10000;  


routing_function = dor;
num_vcs     = 2;

priority = none;
traffic       = uniform; 

injection_rate = 0.55;
packet_size = 1;
injection_rate_uses_flits=1;

topology = mesh;

k  = 8;
n  = 2;

fer = 4;
ecc = link;
correctable = 0;

watch_out=-;
watch_file = watch.txt;

ecc = packet;

stats_out = examples/ecc_mesh88_config_0_0.550_packet_4.m;

END Configuration File: examples/ecc_mesh88_config_0_0.550_packet_4
Additional hops: 3
Adding flit 920 as NACK at time 42
Reenqueueing errored packet 920 at time 49
Additional hops: 11
Adding flit 1185 as NACK at time 72
Additional hops: 14
Adding flit 2214 as NACK at time 76
Reenqueueing errored packet 2214 at time 83
Reenqueueing errored packet 1185 at time 89
Additional hops: 20
Adding flit 3025 as NACK at time 116
Reenqueueing errored packet 3025 at time 129
Additional hops: 25
Adding flit 4777 as NACK at time 165
Reenqueueing errored packet 4777 at time 176
Additional hops: 34
Adding flit 4784 as NACK at time 195
Reenqueueing errored packet 4784 at time 214
Additional hops: 41
Adding flit 6804 as NACK at time 243
Reenqueueing errored packet 6804 at time 258
Additional hops: 46
Adding flit 8181 as NACK at time 273
Reenqueueing errored packet 8181 at time 284
Additional hops: 52
Adding flit 12104 as NACK at time 412
Reenqueueing errored packet 12104 at time 425
Additional hops: 58
Adding flit 17112 as NACK at time 557
Reenqueueing errored packet 17112 at time 570
Additional hops: 64
Adding flit 17040 as NACK at time 570
Reenqueueing errored packet 17040 at time 583
Additional hops: 72
Adding flit 17484 as NACK at time 589
Reenqueueing errored packet 17484 at time 606
Additional hops: 77
Adding flit 21088 as NACK at time 621
Reenqueueing errored packet 21088 at time 632
Additional hops: 78
Adding flit 24641 as NACK at time 708
Reenqueueing errored packet 24641 at time 711
Additional hops: 84
Adding flit 24068 as NACK at time 738
Reenqueueing errored packet 24068 at time 751
Additional hops: 89
Adding flit 26399 as NACK at time 805
Reenqueueing errored packet 26399 at time 816
Additional hops: 95
Adding flit 30478 as NACK at time 981
Reenqueueing errored packet 30478 at time 994
Additional hops: 101
Adding flit 31972 as NACK at time 1011
Reenqueueing errored packet 31972 at time 1024
Additional hops: 109
Adding flit 31772 as NACK at time 1121
Reenqueueing errored packet 31772 at time 1138
Additional hops: 111
Adding flit 40012 as NACK at time 1165
Reenqueueing errored packet 40012 at time 1170
Additional hops: 118
Adding flit 36840 as NACK at time 1214
Reenqueueing errored packet 36840 at time 1229
Additional hops: 125
Adding flit 37269 as NACK at time 1265
Reenqueueing errored packet 37269 at time 1280
Additional hops: 133
Adding flit 43742 as NACK at time 1291
Additional hops: 141
Adding flit 37716 as NACK at time 1303
Reenqueueing errored packet 43742 at time 1308
Reenqueueing errored packet 37716 at time 1320
Additional hops: 150
Adding flit 43453 as NACK at time 1334
Reenqueueing errored packet 43453 at time 1353
Additional hops: 158
Adding flit 46315 as NACK at time 1486
Reenqueueing errored packet 46315 at time 1503
Additional hops: 167
Adding flit 48405 as NACK at time 1525
Additional hops: 171
Adding flit 51366 as NACK at time 1529
Reenqueueing errored packet 51366 at time 1538
Reenqueueing errored packet 48405 at time 1544
Additional hops: 177
Adding flit 52308 as NACK at time 1591
Reenqueueing errored packet 52308 at time 1604
Additional hops: 181
Adding flit 52831 as NACK at time 1623
Reenqueueing errored packet 52831 at time 1632
Additional hops: 189
Adding flit 55321 as NACK at time 1692
Reenqueueing errored packet 55321 at time 1709
Additional hops: 194
Adding flit 55169 as NACK at time 1711
Reenqueueing errored packet 55169 at time 1722
Additional hops: 200
Adding flit 59395 as NACK at time 1735
Reenqueueing errored packet 59395 at time 1748
Additional hops: 207
Adding flit 55053 as NACK at time 1757
Additional hops: 215
Adding flit 53242 as NACK at time 1769
Reenqueueing errored packet 55053 at time 1772
Reenqueueing errored packet 53242 at time 1786
Additional hops: 227
Adding flit 52254 as NACK at time 1794
Reenqueueing errored packet 52254 at time 1819
Additional hops: 235
Adding flit 59654 as NACK at time 1969
Reenqueueing errored packet 59654 at time 1986
Additional hops: 239
Adding flit 61291 as NACK at time 2016
Reenqueueing errored packet 61291 at time 2025
Additional hops: 243
Adding flit 68410 as NACK at time 2197
Reenqueueing errored packet 68410 at time 2206
Additional hops: 248
Adding flit 72360 as NACK at time 2276
Additional hops: 257
Adding flit 68991 as NACK at time 2277
Additional hops: 260
Adding flit 79855 as NACK at time 2281
Reenqueueing errored packet 72360 at time 2287
Reenqueueing errored packet 79855 at time 2288
Reenqueueing errored packet 68991 at time 2296
Additional hops: 263
Adding flit 82284 as NACK at time 2350
Reenqueueing errored packet 82284 at time 2357
Additional hops: 273
Adding flit 75163 as NACK at time 2364
Additional hops: 278
Adding flit 76172 as NACK at time 2376
Additional hops: 284
Adding flit 72977 as NACK at time 2379
Reenqueueing errored packet 75163 at time 2385
Reenqueueing errored packet 76172 at time 2387
Reenqueueing errored packet 72977 at time 2392
Additional hops: 289
Adding flit 78359 as NACK at time 2402
Additional hops: 297
Adding flit 81552 as NACK at time 2405
Reenqueueing errored packet 78359 at time 2413
Reenqueueing errored packet 81552 at time 2422
Additional hops: 307
Adding flit 81933 as NACK at time 2486
Additional hops: 311
Adding flit 86807 as NACK at time 2498
Additional hops: 319
Adding flit 82753 as NACK at time 2499
Reenqueueing errored packet 86807 at time 2507
Reenqueueing errored packet 81933 at time 2507
Reenqueueing errored packet 82753 at time 2516
Additional hops: 328
Adding flit 77444 as NACK at time 2597
Additional hops: 332
Adding flit 85982 as NACK at time 2606
Additional hops: 336
Adding flit 91007 as NACK at time 2607
Additional hops: 343
Adding flit 85013 as NACK at time 2612
Reenqueueing errored packet 85982 at time 2615
Reenqueueing errored packet 91007 at time 2616
Reenqueueing errored packet 77444 at time 2616
Reenqueueing errored packet 85013 at time 2627
Additional hops: 351
Adding flit 79163 as NACK at time 2637
Reenqueueing errored packet 79163 at time 2654
Additional hops: 357
Adding flit 87051 as NACK at time 2681
Reenqueueing errored packet 87051 at time 2694
Additional hops: 367
Adding flit 76382 as NACK at time 2736
Reenqueueing errored packet 76382 at time 2757
Additional hops: 373
Adding flit 90849 as NACK at time 2761
Reenqueueing errored packet 90849 at time 2774
Additional hops: 380
Adding flit 90232 as NACK at time 2819
Reenqueueing errored packet 90232 at time 2834
Additional hops: 392
Adding flit 87204 as NACK at time 2881
Reenqueueing errored packet 87204 at time 2906
Additional hops: 400
Adding flit 84824 as NACK at time 2934
Reenqueueing errored packet 84824 at time 2951
Additional hops: 411
Adding flit 87676 as NACK at time 2988
Reenqueueing errored packet 87676 at time 3011
Additional hops: 420
Adding flit 92222 as NACK at time 3040
Reenqueueing errored packet 92222 at time 3059
Additional hops: 427
Adding flit 102099 as NACK at time 3159
Reenqueueing errored packet 102099 at time 3174
Additional hops: 435
Adding flit 105430 as NACK at time 3313
Additional hops: 439
Adding flit 112919 as NACK at time 3323
Reenqueueing errored packet 105430 at time 3330
Additional hops: 446
Adding flit 108023 as NACK at time 3330
Reenqueueing errored packet 112919 at time 3332
Reenqueueing errored packet 108023 at time 3345
Additional hops: 452
Adding flit 111563 as NACK at time 3353
Additional hops: 460
Adding flit 110367 as NACK at time 3363
Reenqueueing errored packet 111563 at time 3366
Reenqueueing errored packet 110367 at time 3380
Additional hops: 471
Adding flit 101963 as NACK at time 3394
Additional hops: 479
Adding flit 103584 as NACK at time 3397
Reenqueueing errored packet 103584 at time 3414
Reenqueueing errored packet 101963 at time 3417
Additional hops: 486
Adding flit 113239 as NACK at time 3565
Additional hops: 488
Adding flit 125073 as NACK at time 3577
Reenqueueing errored packet 113239 at time 3580
Reenqueueing errored packet 125073 at time 3582
Additional hops: 497
Adding flit 109672 as NACK at time 3597
Additional hops: 504
Adding flit 115943 as NACK at time 3610
Reenqueueing errored packet 109672 at time 3616
Reenqueueing errored packet 115943 at time 3625
Additional hops: 509
Adding flit 127462 as NACK at time 3645
Reenqueueing errored packet 127462 at time 3656
Additional hops: 517
Adding flit 108651 as NACK at time 3660
Reenqueueing errored packet 108651 at time 3677
Additional hops: 519
Adding flit 129855 as NACK at time 3698
Reenqueueing errored packet 129855 at time 3703
Additional hops: 525
Adding flit 115274 as NACK at time 3755
Additional hops: 535
Adding flit 116089 as NACK at time 3758
Reenqueueing errored packet 115274 at time 3768
Reenqueueing errored packet 116089 at time 3779
Additional hops: 543
Adding flit 118398 as NACK at time 3788
Additional hops: 548
Adding flit 132206 as NACK at time 3790
Reenqueueing errored packet 132206 at time 3801
Reenqueueing errored packet 118398 at time 3805
Additional hops: 550
Adding flit 136662 as NACK at time 3915
Reenqueueing errored packet 136662 at time 3920
Additional hops: 553
Adding flit 128413 as NACK at time 3952
Additional hops: 561
Adding flit 124188 as NACK at time 3955
Reenqueueing errored packet 128413 at time 3959
Additional hops: 566
Adding flit 124977 as NACK at time 3965
Additional hops: 572
Adding flit 125201 as NACK at time 3966
Reenqueueing errored packet 124188 at time 3972
Reenqueueing errored packet 124977 at time 3976
Reenqueueing errored packet 125201 at time 3979
Additional hops: 576
Adding flit 135918 as NACK at time 4104
Reenqueueing errored packet 135918 at time 4113
Additional hops: 578
Adding flit 145552 as NACK at time 4148
Reenqueueing errored packet 145552 at time 4153
Additional hops: 589
Adding flit 126633 as NACK at time 4166
Additional hops: 596
Adding flit 130062 as NACK at time 4175
Reenqueueing errored packet 126633 at time 4189
Reenqueueing errored packet 130062 at time 4190
Additional hops: 601
Adding flit 139744 as NACK at time 4289
Reenqueueing errored packet 139744 at time 4300
Additional hops: 609
Adding flit 144634 as NACK at time 4320
Additional hops: 617
Adding flit 137116 as NACK at time 4326
Additional hops: 621
Adding flit 145270 as NACK at time 4327
Reenqueueing errored packet 145270 at time 4336
Reenqueueing errored packet 144634 at time 4337
Reenqueueing errored packet 137116 at time 4343
Additional hops: 627
Adding flit 138912 as NACK at time 4419
Additional hops: 634
Adding flit 148518 as NACK at time 4423
Reenqueueing errored packet 138912 at time 4432
Reenqueueing errored packet 148518 at time 4438
Additional hops: 640
Adding flit 145915 as NACK at time 4454
Additional hops: 645
Adding flit 147657 as NACK at time 4455
Reenqueueing errored packet 147657 at time 4466
Reenqueueing errored packet 145915 at time 4467
Additional hops: 657
Adding flit 133112 as NACK at time 4480
Reenqueueing errored packet 133112 at time 4505
Additional hops: 661
Adding flit 162706 as NACK at time 4652
Reenqueueing errored packet 162706 at time 4661
Additional hops: 665
Adding flit 159401 as NACK at time 4668
Reenqueueing errored packet 159401 at time 4677
Additional hops: 674
Adding flit 146589 as NACK at time 4692
Reenqueueing errored packet 146589 at time 4711
Additional hops: 679
Adding flit 153989 as NACK at time 4733
Reenqueueing errored packet 153989 at time 4744
Additional hops: 688
Adding flit 149041 as NACK at time 4795
Additional hops: 692
Adding flit 162538 as NACK at time 4797
Reenqueueing errored packet 162538 at time 4806
Reenqueueing errored packet 149041 at time 4814
Additional hops: 699
Adding flit 162613 as NACK at time 4862
Reenqueueing errored packet 162613 at time 4877
Additional hops: 706
Adding flit 146131 as NACK at time 4942
Additional hops: 714
Adding flit 147741 as NACK at time 4946
Reenqueueing errored packet 146131 at time 4957
Additional hops: 717
Adding flit 166539 as NACK at time 4960
Reenqueueing errored packet 147741 at time 4963
Reenqueueing errored packet 166539 at time 4967
Additional hops: 724
Adding flit 152636 as NACK at time 4973
Additional hops: 732
Adding flit 153902 as NACK at time 4973
Reenqueueing errored packet 152636 at time 4988
Reenqueueing errored packet 153902 at time 4990
Additional hops: 735
Adding flit 178084 as NACK at time 5079
Reenqueueing errored packet 178084 at time 5086
Additional hops: 745
Adding flit 159972 as NACK at time 5184
Reenqueueing errored packet 159972 at time 5205
Additional hops: 756
Adding flit 157005 as NACK at time 5231
Reenqueueing errored packet 157005 at time 5254
Additional hops: 763
Adding flit 153489 as NACK at time 5278
Reenqueueing errored packet 153489 at time 5293
Additional hops: 773
Adding flit 161423 as NACK at time 5294
Reenqueueing errored packet 161423 at time 5315
Additional hops: 782
Adding flit 162976 as NACK at time 5403
Reenqueueing errored packet 162976 at time 5422
Additional hops: 787
Adding flit 189553 as NACK at time 5437
Reenqueueing errored packet 189553 at time 5448
5462 | node23 | Enqueuing flit 192022 (packet 192022) at time 5462.
5462 | traffic_manager | Finding output VC for flit 192022:
5462 | traffic_manager |   Selected output VC 0.
5462 | network_0/router_2_7 | Adding VC range [0,1] at output port 1 for flit 192022 (input port 4, destination 44).
5462 | node23 | Generating lookahead routing info for flit 192022.
5462 | node23 | Injecting flit 192022 into subnet 0 at time 5462 with priority 0.
Additional hops: 797
Adding flit 161879 as NACK at time 5462
Additional hops: 803
Adding flit 178030 as NACK at time 5462
5463 | network_0/network_0_fchan_ingress23 | Beginning channel traversal for flit 192022 with delay 1.
5463 | network_0/network_0_fchan_ingress23 | Completed channel traversal for flit 192022.
5464 | network_0/router_2_7 | Received flit 192022 from channel at input 4.
5464 | network_0/router_2_7 | Adding flit 192022 to VC 0 at input 4 (state: idle, empty).
5464 | network_0/router_2_7 | Using precomputed lookahead routing information for VC 0 at input 4 (front: 192022).
5464 | network_0/router_2_7/buf_4/vc_0 | Changing state from idle to vc_alloc.
5464 | network_0/router_2_7 | Beginning VC allocation for VC 0 at input 4 (front: 192022).
5464 | network_0/router_2_7 |   Requesting VC 0 at output 1 (in_pri: 0, out_pri: 0).
5464 | network_0/router_2_7 |   Requesting VC 1 at output 1 (in_pri: 0, out_pri: 0).
5464 | network_0/router_2_7/vc_allocator | Input requests = [ 3 -> [ 6@0 7@0 ]  5 -> [ 6@0 7@0 ]  8 -> [ 2@0 3@0 ]  ], output requests = [ 2 -> [ 8@0 ]  3 -> [ 8@0 ]  6 -> [ 3@0 5@0 ]  7 -> [ 3@0 5@0 ]  ].
5464 | network_0/router_2_7/vc_allocator | Input grants = [ 5 -> 7  8 -> 2  ], output grants = [ 2 -> 8  7 -> 5  ].
5464 | network_0/router_2_7 | Assigning VC 0 at output 1 to VC 0 at input 4.
5464 | network_0/router_2_7 | Completed VC allocation for VC 0 at input 4 (front: 192022).
5464 | network_0/router_2_7 |   Acquiring assigned VC 0 at output 1.
5464 | network_0/router_2_7/buf_4/vc_0 | Changing state from vc_alloc to active.
5464 | network_0/router_2_7 | Beginning switch allocation for VC 0 at input 4 (front: 192022).
5464 | network_0/router_2_7 |   Requesting output 1.0 (non-spec, pri: 0).
5464 | network_0/router_2_7/sw_allocator | Input requests = [ 2 -> [ 3@0 ]  4 -> [ 1@0 ]  ], output requests = [ 1 -> [ 4@0 ]  3 -> [ 2@0 ]  ].
5464 | network_0/router_2_7/sw_allocator | Input grants = [ 2 -> 3  4 -> 1  ], output grants = [ 1 -> 4  3 -> 2  ].
5464 | network_0/router_2_7 | Assigning output 1.0 to VC 0 at input 4.0.
5464 | network_0/router_2_7 | Completed switch allocation for VC 0 at input 4 (front: 192022).
5464 | network_0/router_2_7 |   Scheduling switch connection from input 4.0 to output 1.0.
5464 | network_0/router_2_7 | Updating lookahead routing information for flit 192022.
5464 | network_0/router_2_6 | Adding VC range [0,1] at output port 1 for flit 192022 (input port 0, destination 44).
5465 | network_0/router_2_7 | Beginning crossbar traversal for flit 192022 from input 4.0 to output 1.0.
5465 | network_0/router_2_7 | Completed crossbar traversal for flit 192022 from input 4.0 to output 1.0.
5465 | network_0/router_2_7 | Buffering flit 192022 at output 1.
5465 | network_0/router_2_7 | Sending flit 192022 to channel at output 1.
5466 | network_0/network_0_fchan_93 | Beginning channel traversal for flit 192022 with delay 1.
5466 | network_0/network_0_fchan_93 | Completed channel traversal for flit 192022.
5467 | network_0/router_2_6 | Received flit 192022 from channel at input 0.
5467 | network_0/router_2_6 | Adding flit 192022 to VC 0 at input 0 (state: idle, empty).
5467 | network_0/router_2_6 | Using precomputed lookahead routing information for VC 0 at input 0 (front: 192022).
5467 | network_0/router_2_6/buf_0/vc_0 | Changing state from idle to vc_alloc.
5467 | network_0/router_2_6 | Beginning VC allocation for VC 0 at input 0 (front: 192022).
5467 | network_0/router_2_6 |   Requesting VC 0 at output 1 (in_pri: 0, out_pri: 0).
5467 | network_0/router_2_6 |   Requesting VC 1 at output 1 (in_pri: 0, out_pri: 0).
5467 | network_0/router_2_6/vc_allocator | Input requests = [ 0 -> [ 2@0 3@0 ]  2 -> [ 0@0 1@0 ]  4 -> [ 6@0 7@0 ]  7 -> [ 4@0 5@0 ]  ], output requests = [ 0 -> [ 2@0 ]  1 -> [ 2@0 ]  2 -> [ 0@0 ]  3 -> [ 0@0 ]  4 -> [ 7@0 ]  5 -> [ 7@0 ]  6 -> [ 4@0 ]  7 -> [ 4@0 ]  ].
5467 | network_0/router_2_6/vc_allocator | Input grants = [ 0 -> 2  2 -> 1  4 -> 6  7 -> 4  ], output grants = [ 1 -> 2  2 -> 0  4 -> 7  6 -> 4  ].
5467 | network_0/router_2_6 | Assigning VC 0 at output 1 to VC 0 at input 0.
5467 | network_0/router_2_6 | Completed VC allocation for VC 0 at input 0 (front: 192022).
5467 | network_0/router_2_6 |   Acquiring assigned VC 0 at output 1.
5467 | network_0/router_2_6/buf_0/vc_0 | Changing state from vc_alloc to active.
5467 | network_0/router_2_6 | Beginning switch allocation for VC 0 at input 0 (front: 192022).
5467 | network_0/router_2_6 |   Requesting output 1.0 (non-spec, pri: 0).
5467 | network_0/router_2_6/sw_allocator | Input requests = [ 0 -> [ 1@0 ]  1 -> [ 0@0 ]  2 -> [ 3@0 ]  3 -> [ 2@0 ]  ], output requests = [ 0 -> [ 1@0 ]  1 -> [ 0@0 ]  2 -> [ 3@0 ]  3 -> [ 2@0 ]  ].
5467 | network_0/router_2_6/sw_allocator | Input grants = [ 0 -> 1  1 -> 0  2 -> 3  3 -> 2  ], output grants = [ 0 -> 1  1 -> 0  2 -> 3  3 -> 2  ].
5467 | network_0/router_2_6 | Assigning output 1.0 to VC 0 at input 0.0.
5467 | network_0/router_2_6 | Completed switch allocation for VC 0 at input 0 (front: 192022).
5467 | network_0/router_2_6 |   Scheduling switch connection from input 0.0 to output 1.0.
5467 | network_0/router_2_6 | Updating lookahead routing information for flit 192022.
5467 | network_0/router_2_5 | Adding VC range [0,1] at output port 1 for flit 192022 (input port 0, destination 44).
5468 | network_0/router_2_6 | Beginning crossbar traversal for flit 192022 from input 0.0 to output 1.0.
5468 | network_0/router_2_6 | Completed crossbar traversal for flit 192022 from input 0.0 to output 1.0.
5468 | network_0/router_2_6 | Buffering flit 192022 at output 1.
5468 | network_0/router_2_6 | Sending flit 192022 to channel at output 1.
5469 | network_0/network_0_fchan_89 | Beginning channel traversal for flit 192022 with delay 1.
5469 | network_0/network_0_fchan_89 | Completed channel traversal for flit 192022.
5470 | network_0/router_2_5 | Received flit 192022 from channel at input 0.
5470 | network_0/router_2_5 | Adding flit 192022 to VC 0 at input 0 (state: idle, empty).
5470 | network_0/router_2_5 | Using precomputed lookahead routing information for VC 0 at input 0 (front: 192022).
5470 | network_0/router_2_5/buf_0/vc_0 | Changing state from idle to vc_alloc.
5470 | network_0/router_2_5 | Beginning VC allocation for VC 0 at input 0 (front: 192022).
5470 | network_0/router_2_5 |   Requesting VC 0 at output 1 (in_pri: 0, out_pri: 0).
5470 | network_0/router_2_5 |   Requesting VC 1 at output 1 (in_pri: 0, out_pri: 0).
5470 | network_0/router_2_5/vc_allocator | Input requests = [ 0 -> [ 2@0 3@0 ]  3 -> [ 0@0 ]  4 -> [ 6@0 7@0 ]  6 -> [ 4@0 5@0 ]  9 -> [ 2@0 3@0 ]  ], output requests = [ 0 -> [ 3@0 ]  2 -> [ 0@0 9@0 ]  3 -> [ 0@0 9@0 ]  4 -> [ 6@0 ]  5 -> [ 6@0 ]  6 -> [ 4@0 ]  7 -> [ 4@0 ]  ].
5470 | network_0/router_2_5/vc_allocator | Input grants = [ 0 -> 3  3 -> 0  4 -> 6  6 -> 5  9 -> 2  ], output grants = [ 0 -> 3  2 -> 9  3 -> 0  5 -> 6  6 -> 4  ].
5470 | network_0/router_2_5 | Assigning VC 1 at output 1 to VC 0 at input 0.
5470 | network_0/router_2_5 | Completed VC allocation for VC 0 at input 0 (front: 192022).
5470 | network_0/router_2_5 |   Acquiring assigned VC 1 at output 1.
5470 | network_0/router_2_5/buf_0/vc_0 | Changing state from vc_alloc to active.
5470 | network_0/router_2_5 | Beginning switch allocation for VC 0 at input 0 (front: 192022).
5470 | network_0/router_2_5 |   Requesting output 1.0 (non-spec, pri: 0).
5470 | network_0/router_2_5/sw_allocator | Input requests = [ 0 -> [ 1@0 ]  1 -> [ 0@0 ]  2 -> [ 3@0 ]  3 -> [ 2@0 ]  4 -> [ 1@0 ]  ], output requests = [ 0 -> [ 1@0 ]  1 -> [ 0@0 4@0 ]  2 -> [ 3@0 ]  3 -> [ 2@0 ]  ].
5470 | network_0/router_2_5/sw_allocator | Input grants = [ 0 -> 1  1 -> 0  2 -> 3  3 -> 2  ], output grants = [ 0 -> 1  1 -> 0  2 -> 3  3 -> 2  ].
5470 | network_0/router_2_5 | Assigning output 1.0 to VC 0 at input 0.0.
5470 | network_0/router_2_5 | Completed switch allocation for VC 0 at input 0 (front: 192022).
5470 | network_0/router_2_5 |   Scheduling switch connection from input 0.0 to output 1.0.
5470 | network_0/router_2_5 | Updating lookahead routing information for flit 192022.
5470 | network_0/router_2_4 | Adding VC range [0,1] at output port 2 for flit 192022 (input port 0, destination 44).
5471 | network_0/router_2_5 | Beginning crossbar traversal for flit 192022 from input 0.0 to output 1.0.
5471 | network_0/router_2_5 | Completed crossbar traversal for flit 192022 from input 0.0 to output 1.0.
5471 | network_0/router_2_5 | Buffering flit 192022 at output 1.
Reenqueueing errored packet 178030 at time 5475
Additional hops: 810
Adding flit 175054 as NACK at time 5479
Additional hops: 814
Adding flit 173750 as NACK at time 5481
Reenqueueing errored packet 161879 at time 5483
Reenqueueing errored packet 173750 at time 5490
Reenqueueing errored packet 175054 at time 5494
Additional hops: 819
Adding flit 168075 as NACK at time 5495
Reenqueueing errored packet 168075 at time 5506
Additional hops: 824
Adding flit 179574 as NACK at time 5556
Reenqueueing errored packet 179574 at time 5567
Additional hops: 829
Adding flit 189301 as NACK at time 5646
5646 | network_0/router_2_5 | Sending flit 192022 to channel at output 1.
5647 | network_0/network_0_fchan_85 | Beginning channel traversal for flit 192022 with delay 1.
5647 | network_0/network_0_fchan_85 | Completed channel traversal for flit 192022.
5648 | network_0/router_2_4 | Received flit 192022 from channel at input 0.
5648 | network_0/router_2_4 | Adding flit 192022 to VC 1 at input 0 (state: idle, empty).
5648 | network_0/router_2_4 | Using precomputed lookahead routing information for VC 1 at input 0 (front: 192022).
5648 | network_0/router_2_4/buf_0/vc_1 | Changing state from idle to vc_alloc.
5648 | network_0/router_2_4 | Beginning VC allocation for VC 1 at input 0 (front: 192022).
5648 | network_0/router_2_4 |   Requesting VC 0 at output 2 (in_pri: 0, out_pri: 0).
5648 | network_0/router_2_4 |   Requesting VC 1 at output 2 (in_pri: 0, out_pri: 0).
5648 | network_0/router_2_4/vc_allocator | Input requests = [ 0 -> [ 2@0 ]  1 -> [ 4@0 5@0 ]  2 -> [ 0@0 1@0 ]  4 -> [ 6@0 7@0 ]  7 -> [ 4@0 5@0 ]  8 -> [ 4@0 5@0 ]  ], output requests = [ 0 -> [ 2@0 ]  1 -> [ 2@0 ]  2 -> [ 0@0 ]  4 -> [ 1@0 7@0 8@0 ]  5 -> [ 1@0 7@0 8@0 ]  6 -> [ 4@0 ]  7 -> [ 4@0 ]  ].
5648 | network_0/router_2_4/vc_allocator | Input grants = [ 0 -> 2  2 -> 0  4 -> 6  7 -> 4  ], output grants = [ 0 -> 2  2 -> 0  4 -> 7  6 -> 4  ].
5648 | network_0/router_2_4 | VC allocation failed for VC 1 at input 0.
5648 | network_0/router_2_4 | Completed VC allocation for VC 1 at input 0 (front: 192022).
5648 | network_0/router_2_4 |   No output VC allocated.
5648 | network_0/router_2_4 | Beginning VC allocation for VC 1 at input 0 (front: 192022).
5648 | network_0/router_2_4 |   VC 0 at output 2 is in use by VC 1 at input 3 (front flit: 178549).
5648 | network_0/router_2_4 |   Requesting VC 1 at output 2 (in_pri: 0, out_pri: 0).
5648 | network_0/router_2_4/vc_allocator | Input requests = [ 1 -> [ 5@0 ]  8 -> [ 5@0 ]  ], output requests = [ 5 -> [ 1@0 8@0 ]  ].
5648 | network_0/router_2_4/vc_allocator | Input grants = [ 8 -> 5  ], output grants = [ 5 -> 8  ].
5648 | network_0/router_2_4 | VC allocation failed for VC 1 at input 0.
5648 | network_0/router_2_4 | Completed VC allocation for VC 1 at input 0 (front: 192022).
5648 | network_0/router_2_4 |   No output VC allocated.
5649 | network_0/router_2_4 | Beginning VC allocation for VC 1 at input 0 (front: 192022).
5649 | network_0/router_2_4 |   Requesting VC 0 at output 2 (in_pri: 0, out_pri: 0).
5649 | network_0/router_2_4 |   VC 1 at output 2 is in use by VC 0 at input 4 (front flit: 198495).
5649 | network_0/router_2_4/vc_allocator | Input requests = [ 1 -> [ 4@0 ]  3 -> [ 0@0 1@0 ]  5 -> [ 8@0 9@0 ]  6 -> [ 8@0 9@0 ]  ], output requests = [ 0 -> [ 3@0 ]  1 -> [ 3@0 ]  4 -> [ 1@0 ]  8 -> [ 5@0 6@0 ]  9 -> [ 5@0 6@0 ]  ].
5649 | network_0/router_2_4/vc_allocator | Input grants = [ 1 -> 4  3 -> 1  5 -> 8  ], output grants = [ 1 -> 3  4 -> 1  8 -> 5  ].
5649 | network_0/router_2_4 | Assigning VC 0 at output 2 to VC 1 at input 0.
5649 | network_0/router_2_4 | Completed VC allocation for VC 1 at input 0 (front: 192022).
5649 | network_0/router_2_4 |   Acquiring assigned VC 0 at output 2.
5649 | network_0/router_2_4/buf_0/vc_1 | Changing state from vc_alloc to active.
5649 | network_0/router_2_4 | Beginning switch allocation for VC 1 at input 0 (front: 192022).
5649 | network_0/router_2_4 |   Requesting output 2.0 (non-spec, pri: 0).
5649 | network_0/router_2_4/sw_allocator | Input requests = [ 0 -> [ 2@0 ]  1 -> [ 0@0 ]  2 -> [ 4@0 ]  ], output requests = [ 0 -> [ 1@0 ]  2 -> [ 0@0 ]  4 -> [ 2@0 ]  ].
5649 | network_0/router_2_4/sw_allocator | Input grants = [ 0 -> 2  1 -> 0  2 -> 4  ], output grants = [ 0 -> 1  2 -> 0  4 -> 2  ].
5649 | network_0/router_2_4 | Assigning output 2.0 to VC 1 at input 0.0.
5649 | network_0/router_2_4 | Completed switch allocation for VC 1 at input 0 (front: 192022).
5649 | network_0/router_2_4 |   Scheduling switch connection from input 0.0 to output 2.0.
5649 | network_0/router_2_4 | Updating lookahead routing information for flit 192022.
5649 | network_0/router_3_4 | Adding VC range [0,1] at output port 2 for flit 192022 (input port 3, destination 44).
5650 | network_0/router_2_4 | Beginning crossbar traversal for flit 192022 from input 0.0 to output 2.0.
5650 | network_0/router_2_4 | Completed crossbar traversal for flit 192022 from input 0.0 to output 2.0.
5650 | network_0/router_2_4 | Buffering flit 192022 at output 2.
Additional hops: 835
Adding flit 185922 as NACK at time 5653
Reenqueueing errored packet 189301 at time 5657
5661 | network_0/router_2_4 | Sending flit 192022 to channel at output 2.
5662 | network_0/network_0_fchan_82 | Beginning channel traversal for flit 192022 with delay 1.
5662 | network_0/network_0_fchan_82 | Completed channel traversal for flit 192022.
5663 | network_0/router_3_4 | Received flit 192022 from channel at input 3.
5663 | network_0/router_3_4 | Adding flit 192022 to VC 0 at input 3 (state: idle, empty).
5663 | network_0/router_3_4 | Using precomputed lookahead routing information for VC 0 at input 3 (front: 192022).
5663 | network_0/router_3_4/buf_3/vc_0 | Changing state from idle to vc_alloc.
5663 | network_0/router_3_4 | Beginning VC allocation for VC 0 at input 3 (front: 192022).
5663 | network_0/router_3_4 |   Requesting VC 0 at output 2 (in_pri: 0, out_pri: 0).
5663 | network_0/router_3_4 |   Requesting VC 1 at output 2 (in_pri: 0, out_pri: 0).
5663 | network_0/router_3_4/vc_allocator | Input requests = [ 0 -> [ 6@0 7@0 ]  2 -> [ 0@0 1@0 ]  4 -> [ 6@0 7@0 ]  6 -> [ 4@0 5@0 ]  ], output requests = [ 0 -> [ 2@0 ]  1 -> [ 2@0 ]  4 -> [ 6@0 ]  5 -> [ 6@0 ]  6 -> [ 0@0 4@0 ]  7 -> [ 0@0 4@0 ]  ].
5663 | network_0/router_3_4/vc_allocator | Input grants = [ 0 -> 7  2 -> 0  4 -> 6  6 -> 4  ], output grants = [ 0 -> 2  4 -> 6  6 -> 4  7 -> 0  ].
5663 | network_0/router_3_4 | Assigning VC 0 at output 2 to VC 0 at input 3.
5663 | network_0/router_3_4 | Completed VC allocation for VC 0 at input 3 (front: 192022).
5663 | network_0/router_3_4 |   Acquiring assigned VC 0 at output 2.
5663 | network_0/router_3_4/buf_3/vc_0 | Changing state from vc_alloc to active.
5663 | network_0/router_3_4 | Beginning switch allocation for VC 0 at input 3 (front: 192022).
5663 | network_0/router_3_4 |   Requesting output 2.0 (non-spec, pri: 0).
5663 | network_0/router_3_4/sw_allocator | Input requests = [ 0 -> [ 3@0 ]  1 -> [ 0@0 ]  2 -> [ 3@0 ]  3 -> [ 2@0 ]  ], output requests = [ 0 -> [ 1@0 ]  2 -> [ 3@0 ]  3 -> [ 0@0 2@0 ]  ].
5663 | network_0/router_3_4/sw_allocator | Input grants = [ 0 -> 3  1 -> 0  3 -> 2  ], output grants = [ 0 -> 1  2 -> 3  3 -> 0  ].
5663 | network_0/router_3_4 | Assigning output 2.0 to VC 0 at input 3.0.
5663 | network_0/router_3_4 | Completed switch allocation for VC 0 at input 3 (front: 192022).
5663 | network_0/router_3_4 |   Scheduling switch connection from input 3.0 to output 2.0.
5663 | network_0/router_3_4 | Updating lookahead routing information for flit 192022.
5663 | network_0/router_4_4 | Adding VC range [0,1] at output port 2 for flit 192022 (input port 3, destination 44).
5664 | network_0/router_3_4 | Beginning crossbar traversal for flit 192022 from input 3.0 to output 2.0.
5664 | network_0/router_3_4 | Completed crossbar traversal for flit 192022 from input 3.0 to output 2.0.
5664 | network_0/router_3_4 | Buffering flit 192022 at output 2.
Reenqueueing errored packet 185922 at time 5666
Additional hops: 840
Adding flit 199534 as NACK at time 5696
Additional hops: 844
Adding flit 199700 as NACK at time 5698
Reenqueueing errored packet 199700 at time 5707
Reenqueueing errored packet 199534 at time 5707
5742 | network_0/router_3_4 | Sending flit 192022 to channel at output 2.
5743 | network_0/network_0_fchan_114 | Beginning channel traversal for flit 192022 with delay 1.
5743 | network_0/network_0_fchan_114 | Completed channel traversal for flit 192022.
5744 | network_0/router_4_4 | Received flit 192022 from channel at input 3.
5744 | network_0/router_4_4 | Adding flit 192022 to VC 0 at input 3 (state: idle, empty).
5744 | network_0/router_4_4 | Using precomputed lookahead routing information for VC 0 at input 3 (front: 192022).
5744 | network_0/router_4_4/buf_3/vc_0 | Changing state from idle to vc_alloc.
5744 | network_0/router_4_4 | Beginning VC allocation for VC 0 at input 3 (front: 192022).
5744 | network_0/router_4_4 |   Requesting VC 0 at output 2 (in_pri: 0, out_pri: 0).
5744 | network_0/router_4_4 |   Requesting VC 1 at output 2 (in_pri: 0, out_pri: 0).
5744 | network_0/router_4_4/vc_allocator | Input requests = [ 0 -> [ 2@0 3@0 ]  3 -> [ 0@0 1@0 ]  4 -> [ 8@0 9@0 ]  6 -> [ 4@0 5@0 ]  ], output requests = [ 0 -> [ 3@0 ]  1 -> [ 3@0 ]  2 -> [ 0@0 ]  3 -> [ 0@0 ]  4 -> [ 6@0 ]  5 -> [ 6@0 ]  8 -> [ 4@0 ]  9 -> [ 4@0 ]  ].
5744 | network_0/router_4_4/vc_allocator | Input grants = [ 0 -> 3  3 -> 0  4 -> 8  6 -> 5  ], output grants = [ 0 -> 3  3 -> 0  5 -> 6  8 -> 4  ].
5744 | network_0/router_4_4 | Assigning VC 1 at output 2 to VC 0 at input 3.
5744 | network_0/router_4_4 | Completed VC allocation for VC 0 at input 3 (front: 192022).
5744 | network_0/router_4_4 |   Acquiring assigned VC 1 at output 2.
5744 | network_0/router_4_4/buf_3/vc_0 | Changing state from vc_alloc to active.
5744 | network_0/router_4_4 | Beginning switch allocation for VC 0 at input 3 (front: 192022).
5744 | network_0/router_4_4 |   Requesting output 2.0 (non-spec, pri: 0).
5744 | network_0/router_4_4/sw_allocator | Input requests = [ 0 -> [ 1@0 ]  1 -> [ 0@0 ]  2 -> [ 4@0 ]  3 -> [ 2@0 ]  ], output requests = [ 0 -> [ 1@0 ]  1 -> [ 0@0 ]  2 -> [ 3@0 ]  4 -> [ 2@0 ]  ].
5744 | network_0/router_4_4/sw_allocator | Input grants = [ 0 -> 1  1 -> 0  2 -> 4  3 -> 2  ], output grants = [ 0 -> 1  1 -> 0  2 -> 3  4 -> 2  ].
5744 | network_0/router_4_4 | Assigning output 2.0 to VC 0 at input 3.0.
5744 | network_0/router_4_4 | Completed switch allocation for VC 0 at input 3 (front: 192022).
5744 | network_0/router_4_4 |   Scheduling switch connection from input 3.0 to output 2.0.
5744 | network_0/router_4_4 | Updating lookahead routing information for flit 192022.
5744 | network_0/router_5_4 | Adding VC range [0,1] at output port 4 for flit 192022 (input port 3, destination 44).
5745 | network_0/router_4_4 | Beginning crossbar traversal for flit 192022 from input 3.0 to output 2.0.
5745 | network_0/router_4_4 | Completed crossbar traversal for flit 192022 from input 3.0 to output 2.0.
5745 | network_0/router_4_4 | Buffering flit 192022 at output 2.
5747 | network_0/router_4_4 | Sending flit 192022 to channel at output 2.
5748 | network_0/network_0_fchan_146 | Beginning channel traversal for flit 192022 with delay 1.
5748 | network_0/network_0_fchan_146 | Completed channel traversal for flit 192022.
5749 | network_0/router_5_4 | Received flit 192022 from channel at input 3.
5749 | network_0/router_5_4 | Adding flit 192022 to VC 1 at input 3 (state: idle, empty).
5749 | network_0/router_5_4 | Using precomputed lookahead routing information for VC 1 at input 3 (front: 192022).
5749 | network_0/router_5_4/buf_3/vc_1 | Changing state from idle to vc_alloc.
5749 | network_0/router_5_4 | Beginning VC allocation for VC 1 at input 3 (front: 192022).
5749 | network_0/router_5_4 |   Requesting VC 0 at output 4 (in_pri: 0, out_pri: 0).
5749 | network_0/router_5_4 |   Requesting VC 1 at output 4 (in_pri: 0, out_pri: 0).
5749 | network_0/router_5_4/vc_allocator | Input requests = [ 1 -> [ 6@0 7@0 ]  3 -> [ 0@0 ]  4 -> [ 6@0 7@0 ]  7 -> [ 8@0 9@0 ]  8 -> [ 0@0 ]  ], output requests = [ 0 -> [ 3@0 8@0 ]  6 -> [ 1@0 4@0 ]  7 -> [ 1@0 4@0 ]  8 -> [ 7@0 ]  9 -> [ 7@0 ]  ].
5749 | network_0/router_5_4/vc_allocator | Input grants = [ 1 -> 6  3 -> 0  7 -> 8  ], output grants = [ 0 -> 3  6 -> 1  8 -> 7  ].
5749 | network_0/router_5_4 | Assigning VC 0 at output 4 to VC 1 at input 3.
5749 | network_0/router_5_4 | Completed VC allocation for VC 1 at input 3 (front: 192022).
5749 | network_0/router_5_4 |   Acquiring assigned VC 0 at output 4.
5749 | network_0/router_5_4/buf_3/vc_1 | Changing state from vc_alloc to active.
5749 | network_0/router_5_4 | Beginning switch allocation for VC 1 at input 3 (front: 192022).
5749 | network_0/router_5_4 |   Requesting output 4.0 (non-spec, pri: 0).
5749 | network_0/router_5_4/sw_allocator | Input requests = [ 0 -> [ 3@0 ]  1 -> [ 0@0 ]  3 -> [ 4@0 ]  ], output requests = [ 0 -> [ 1@0 ]  3 -> [ 0@0 ]  4 -> [ 3@0 ]  ].
5749 | network_0/router_5_4/sw_allocator | Input grants = [ 0 -> 3  1 -> 0  3 -> 4  ], output grants = [ 0 -> 1  3 -> 0  4 -> 3  ].
5749 | network_0/router_5_4 | Assigning output 4.0 to VC 1 at input 3.0.
5749 | network_0/router_5_4 | Completed switch allocation for VC 1 at input 3 (front: 192022).
5749 | network_0/router_5_4 |   Scheduling switch connection from input 3.0 to output 4.0.
5750 | network_0/router_5_4 | Beginning crossbar traversal for flit 192022 from input 3.0 to output 4.0.
5750 | network_0/router_5_4 | Completed crossbar traversal for flit 192022 from input 3.0 to output 4.0.
5750 | network_0/router_5_4 | Buffering flit 192022 at output 4.
5750 | network_0/router_5_4 | Sending flit 192022 to channel at output 4.
5751 | network_0/network_0_fchan_egress44 | Beginning channel traversal for flit 192022 with delay 1.
5751 | network_0/network_0_fchan_egress44 | Completed channel traversal for flit 192022.
5752 | node44 | Ejecting flit 192022 (packet 192022) from VC 0.
5752 | node44 | Injecting credit for VC 0 into subnet 0.
5752 | node44 | Retiring flit 192022 (packet 192022, src = 23, dest = 44, hops = 7, flat = 290).
5752 | node44 | Retiring packet 192022 (plat = 290, nlat = 290, frag = 0, src = 23, dest = 44).
Additional hops: 851
Adding flit 177217 as NACK at time 5802
Additional hops: 856
Adding flit 181848 as NACK at time 5810
Reenqueueing errored packet 177217 at time 5817
Reenqueueing errored packet 181848 at time 5821
Additional hops: 865
Adding flit 176159 as NACK at time 5864
Additional hops: 871
Adding flit 183568 as NACK at time 5865
Reenqueueing errored packet 183568 at time 5878
Reenqueueing errored packet 176159 at time 5883
Additional hops: 881
Adding flit 172768 as NACK at time 5907
Reenqueueing errored packet 172768 at time 5928
Additional hops: 887
Adding flit 177831 as NACK at time 5972
Reenqueueing errored packet 177831 at time 5985
Additional hops: 891
Adding flit 211331 as NACK at time 6025
Reenqueueing errored packet 211331 at time 6034
Additional hops: 895
Adding flit 209593 as NACK at time 6037
Additional hops: 901
Adding flit 191397 as NACK at time 6039
Reenqueueing errored packet 209593 at time 6046
Reenqueueing errored packet 191397 at time 6052
Additional hops: 910
Adding flit 176677 as NACK at time 6091
Reenqueueing errored packet 176677 at time 6110
Additional hops: 918
Adding flit 194010 as NACK at time 6131
Reenqueueing errored packet 194010 at time 6148
Additional hops: 929
Adding flit 184342 as NACK at time 6156
Additional hops: 942
Adding flit 185512 as NACK at time 6163
Additional hops: 955
Adding flit 183214 as NACK at time 6163
Reenqueueing errored packet 184342 at time 6179
Additional hops: 963
Adding flit 187261 as NACK at time 6181
Additional hops: 974
Adding flit 185047 as NACK at time 6186
Reenqueueing errored packet 183214 at time 6190
Reenqueueing errored packet 185512 at time 6190
Reenqueueing errored packet 187261 at time 6198
Reenqueueing errored packet 185047 at time 6209
Additional hops: 980
Adding flit 213965 as NACK at time 6325
Reenqueueing errored packet 213965 at time 6338
Additional hops: 988
Adding flit 198959 as NACK at time 6373
Additional hops: 996
Adding flit 200855 as NACK at time 6380
Reenqueueing errored packet 198959 at time 6390
Additional hops: 1001
Adding flit 224173 as NACK at time 6394
Reenqueueing errored packet 200855 at time 6397
Reenqueueing errored packet 224173 at time 6405
Additional hops: 1006
Adding flit 204991 as NACK at time 6471
Reenqueueing errored packet 204991 at time 6482
Additional hops: 1015
Adding flit 198712 as NACK at time 6517
Reenqueueing errored packet 198712 at time 6536
Additional hops: 1025
Adding flit 199912 as NACK at time 6615
Reenqueueing errored packet 199912 at time 6636
Additional hops: 1033
Adding flit 218893 as NACK at time 6636
Additional hops: 1040
Adding flit 198118 as NACK at time 6637
Reenqueueing errored packet 198118 at time 6652
Reenqueueing errored packet 218893 at time 6653
Additional hops: 1048
Adding flit 218214 as NACK at time 6685
Reenqueueing errored packet 218214 at time 6702
Additional hops: 1057
Adding flit 224562 as NACK at time 6710
Reenqueueing errored packet 224562 at time 6729
Additional hops: 1069
Adding flit 202182 as NACK at time 6739
Additional hops: 1080
Adding flit 207689 as NACK at time 6745
Reenqueueing errored packet 202182 at time 6764
Reenqueueing errored packet 207689 at time 6768
Additional hops: 1088
Adding flit 208770 as NACK at time 6769
Reenqueueing errored packet 208770 at time 6786
Additional hops: 1093
Adding flit 238465 as NACK at time 6812
Reenqueueing errored packet 238465 at time 6823
Additional hops: 1098
Adding flit 230231 as NACK at time 6851
Reenqueueing errored packet 230231 at time 6862
Additional hops: 1105
Adding flit 213742 as NACK at time 6866
Reenqueueing errored packet 213742 at time 6881
Additional hops: 1113
Adding flit 213148 as NACK at time 6881
Reenqueueing errored packet 213148 at time 6898
Additional hops: 1120
Adding flit 216380 as NACK at time 6951
Reenqueueing errored packet 216380 at time 6966
Additional hops: 1127
Adding flit 216754 as NACK at time 6984
Reenqueueing errored packet 216754 at time 6999
Additional hops: 1131
Adding flit 221779 as NACK at time 7012
Reenqueueing errored packet 221779 at time 7021
Additional hops: 1138
Adding flit 232054 as NACK at time 7044
Reenqueueing errored packet 232054 at time 7059
Additional hops: 1145
Adding flit 224859 as NACK at time 7241
Reenqueueing errored packet 224859 at time 7256
Additional hops: 1149
Adding flit 226584 as NACK at time 7273
Reenqueueing errored packet 226584 at time 7282
Additional hops: 1160
Adding flit 214956 as NACK at time 7284
Reenqueueing errored packet 214956 at time 7307
Additional hops: 1162
Adding flit 256135 as NACK at time 7413
Reenqueueing errored packet 256135 at time 7418
Additional hops: 1176
Adding flit 218648 as NACK at time 7445
Reenqueueing errored packet 218648 at time 7474
Additional hops: 1182
Adding flit 224177 as NACK at time 7502
Reenqueueing errored packet 224177 at time 7515
Additional hops: 1187
Adding flit 260552 as NACK at time 7540
Reenqueueing errored packet 260552 at time 7551
Additional hops: 1195
Adding flit 241522 as NACK at time 7557
Additional hops: 1207
Adding flit 225895 as NACK at time 7563
Reenqueueing errored packet 241522 at time 7574
Additional hops: 1215
Adding flit 239202 as NACK at time 7583
Reenqueueing errored packet 225895 at time 7588
Reenqueueing errored packet 239202 at time 7600
Additional hops: 1221
Adding flit 260155 as NACK at time 7713
Reenqueueing errored packet 260155 at time 7726
Additional hops: 1229
Adding flit 247443 as NACK at time 7751
Reenqueueing errored packet 247443 at time 7768
Additional hops: 1240
Adding flit 233770 as NACK at time 7799
Reenqueueing errored packet 233770 at time 7822
Additional hops: 1252
Adding flit 233250 as NACK at time 7928
Additional hops: 1264
Adding flit 240769 as NACK at time 7952
Reenqueueing errored packet 233250 at time 7953
Additional hops: 1274
Adding flit 255092 as NACK at time 7976
Reenqueueing errored packet 240769 at time 7977
Reenqueueing errored packet 255092 at time 7997
Additional hops: 1281
Adding flit 252629 as NACK at time 8000
Additional hops: 1288
Adding flit 269687 as NACK at time 8000
Reenqueueing errored packet 269687 at time 8015
Reenqueueing errored packet 252629 at time 8015
Additional hops: 1298
Adding flit 235423 as NACK at time 8021
Reenqueueing errored packet 235423 at time 8042
Additional hops: 1309
Adding flit 241860 as NACK at time 8046
Additional hops: 1312
Adding flit 270058 as NACK at time 8048
Reenqueueing errored packet 270058 at time 8055
Reenqueueing errored packet 241860 at time 8069
Additional hops: 1322
Adding flit 240056 as NACK at time 8151
Reenqueueing errored packet 240056 at time 8172
Additional hops: 1329
Adding flit 273754 as NACK at time 8204
Reenqueueing errored packet 273754 at time 8219
Additional hops: 1335
Adding flit 279624 as NACK at time 8332
Reenqueueing errored packet 279624 at time 8345
Additional hops: 1342
Adding flit 257688 as NACK at time 8361
Additional hops: 1349
Adding flit 266417 as NACK at time 8365
Additional hops: 1356
Adding flit 256133 as NACK at time 8371
Reenqueueing errored packet 257688 at time 8376
Reenqueueing errored packet 266417 at time 8380
Reenqueueing errored packet 256133 at time 8386
Additional hops: 1363
Adding flit 249120 as NACK at time 8392
Additional hops: 1368
Adding flit 275291 as NACK at time 8395
Reenqueueing errored packet 275291 at time 8406
Reenqueueing errored packet 249120 at time 8407
Additional hops: 1374
Adding flit 276752 as NACK at time 8407
Reenqueueing errored packet 276752 at time 8420
Additional hops: 1381
Adding flit 263441 as NACK at time 8515
Reenqueueing errored packet 263441 at time 8530
Additional hops: 1386
Adding flit 277281 as NACK at time 8549
Reenqueueing errored packet 277281 at time 8560
Additional hops: 1393
Adding flit 265331 as NACK at time 8578
Reenqueueing errored packet 265331 at time 8593
Additional hops: 1404
Adding flit 248835 as NACK at time 8594
Additional hops: 1409
Adding flit 283017 as NACK at time 8596
Reenqueueing errored packet 283017 at time 8607
Reenqueueing errored packet 248835 at time 8617
Additional hops: 1413
Adding flit 302448 as NACK at time 8631
Reenqueueing errored packet 302448 at time 8640
Additional hops: 1419
Adding flit 280215 as NACK at time 8751
Reenqueueing errored packet 280215 at time 8764
Additional hops: 1426
Adding flit 279846 as NACK at time 8855
Additional hops: 1433
Adding flit 284022 as NACK at time 8862
Reenqueueing errored packet 279846 at time 8870
Reenqueueing errored packet 284022 at time 8877
Additional hops: 1440
Adding flit 302629 as NACK at time 8898
Additional hops: 1448
Adding flit 279119 as NACK at time 8906
Reenqueueing errored packet 302629 at time 8913
Reenqueueing errored packet 279119 at time 8923
Additional hops: 1452
Adding flit 313054 as NACK at time 8930
Reenqueueing errored packet 313054 at time 8939
Additional hops: 1460
Adding flit 281130 as NACK at time 8991
Reenqueueing errored packet 281130 at time 9008
Additional hops: 1468
Adding flit 299160 as NACK at time 9051
Reenqueueing errored packet 299160 at time 9068
Additional hops: 1478
Adding flit 264874 as NACK at time 9071
Additional hops: 1482
Adding flit 290721 as NACK at time 9081
Reenqueueing errored packet 290721 at time 9090
Reenqueueing errored packet 264874 at time 9092
Additional hops: 1486
Adding flit 283987 as NACK at time 9123
Reenqueueing errored packet 283987 at time 9132
Additional hops: 1494
Adding flit 276922 as NACK at time 9190
Additional hops: 1500
Adding flit 321602 as NACK at time 9198
Reenqueueing errored packet 276922 at time 9207
Reenqueueing errored packet 321602 at time 9211
Additional hops: 1509
Adding flit 286177 as NACK at time 9226
Reenqueueing errored packet 286177 at time 9245
Additional hops: 1518
Adding flit 287205 as NACK at time 9265
Reenqueueing errored packet 287205 at time 9284
Additional hops: 1524
Adding flit 312190 as NACK at time 9306
Reenqueueing errored packet 312190 at time 9319
Additional hops: 1534
Adding flit 278657 as NACK at time 9418
Additional hops: 1543
Adding flit 291189 as NACK at time 9425
Additional hops: 1553
Adding flit 286585 as NACK at time 9438
Reenqueueing errored packet 278657 at time 9439
Reenqueueing errored packet 291189 at time 9444
Reenqueueing errored packet 286585 at time 9459
Additional hops: 1560
Adding flit 295088 as NACK at time 9462
Reenqueueing errored packet 295088 at time 9477
Additional hops: 1565
Adding flit 317931 as NACK at time 9494
Reenqueueing errored packet 317931 at time 9505
Additional hops: 1576
Adding flit 282799 as NACK at time 9520
Reenqueueing errored packet 282799 at time 9543
Additional hops: 1584
Adding flit 282619 as NACK at time 9608
Additional hops: 1594
Adding flit 303271 as NACK at time 9621
Reenqueueing errored packet 282619 at time 9625
Additional hops: 1603
Adding flit 316124 as NACK at time 9627
Reenqueueing errored packet 303271 at time 9642
Reenqueueing errored packet 316124 at time 9646
Additional hops: 1610
Adding flit 320875 as NACK at time 9663
Reenqueueing errored packet 320875 at time 9678
Additional hops: 1615
Adding flit 304141 as NACK at time 9699
Reenqueueing errored packet 304141 at time 9710
Class 0:
Packet latency average = 364.692
	minimum = 5
	maximum = 2922
Network latency average = 364.402
	minimum = 5
	maximum = 1895
Slowest packet = 36687
Flit latency average = 364.402
	minimum = 5
	maximum = 1895
Slowest flit = 282731
Fragmentation average = 0
	minimum = 0
	maximum = 0
Injected packet rate average = 0.549592
	minimum = 0.5389 (at node 53)
	maximum = 0.5615 (at node 3)
Accepted packet rate average = 0.508747
	minimum = 0.4948 (at node 21)
	maximum = 0.5234 (at node 14)
Injected flit rate average = 0.549592
	minimum = 0.5389 (at node 53)
	maximum = 0.5615 (at node 3)
Accepted flit rate average= 0.508747
	minimum = 0.4948 (at node 21)
	maximum = 0.5234 (at node 14)
Injected packet length average = 1
Accepted packet length average = 1
Total in-flight flits = 26141 (0 measured)
latency change    = 1
throughput change = 1
Additional hops: 1624
Adding flit 312696 as NACK at time 10016
Reenqueueing errored packet 312696 at time 10035
Additional hops: 1630
Adding flit 349394 as NACK at time 10076
Reenqueueing errored packet 349394 at time 10089
Additional hops: 1640
Adding flit 303140 as NACK at time 10145
Additional hops: 1645
Adding flit 338178 as NACK at time 10159
Reenqueueing errored packet 303140 at time 10166
Reenqueueing errored packet 338178 at time 10170
Additional hops: 1648
Adding flit 357914 as NACK at time 10200
Reenqueueing errored packet 357914 at time 10207
Additional hops: 1656
Adding flit 318619 as NACK at time 10255
Additional hops: 1663
Adding flit 344380 as NACK at time 10256
Additional hops: 1674
Adding flit 289570 as NACK at time 10258
Reenqueueing errored packet 344380 at time 10271
Reenqueueing errored packet 318619 at time 10272
Reenqueueing errored packet 289570 at time 10281
Additional hops: 1679
Adding flit 316180 as NACK at time 10287
Reenqueueing errored packet 316180 at time 10298
Additional hops: 1686
Adding flit 350270 as NACK at time 10469
Reenqueueing errored packet 350270 at time 10484
Additional hops: 1696
Adding flit 315157 as NACK at time 10505
Reenqueueing errored packet 315157 at time 10526
Additional hops: 1703
Adding flit 344067 as NACK at time 10577
Reenqueueing errored packet 344067 at time 10592
Additional hops: 1713
Adding flit 317393 as NACK at time 10743
Additional hops: 1718
Adding flit 368968 as NACK at time 10747
Reenqueueing errored packet 368968 at time 10758
Reenqueueing errored packet 317393 at time 10764
Additional hops: 1724
Adding flit 339760 as NACK at time 10805
Reenqueueing errored packet 339760 at time 10818
Additional hops: 1727
Adding flit 379862 as NACK at time 10820
Reenqueueing errored packet 379862 at time 10827
Additional hops: 1737
Adding flit 325999 as NACK at time 10833
Additional hops: 1744
Adding flit 356669 as NACK at time 10853
Reenqueueing errored packet 325999 at time 10854
Additional hops: 1752
Adding flit 369591 as NACK at time 10856
Reenqueueing errored packet 356669 at time 10868
Reenqueueing errored packet 369591 at time 10873
Additional hops: 1759
Adding flit 327443 as NACK at time 10885
Reenqueueing errored packet 327443 at time 10900
Additional hops: 1769
Adding flit 366260 as NACK at time 10905
Additional hops: 1773
Adding flit 344365 as NACK at time 10905
Reenqueueing errored packet 344365 at time 10914
Reenqueueing errored packet 366260 at time 10926
Additional hops: 1776
Adding flit 373801 as NACK at time 10930
Reenqueueing errored packet 373801 at time 10937
Additional hops: 1783
Adding flit 345938 as NACK at time 10943
Reenqueueing errored packet 345938 at time 10958
Additional hops: 1787
Adding flit 388934 as NACK at time 11082
Reenqueueing errored packet 388934 at time 11091
Additional hops: 1797
Adding flit 363163 as NACK at time 11204
Additional hops: 1803
Adding flit 379935 as NACK at time 11217
Reenqueueing errored packet 363163 at time 11225
Reenqueueing errored packet 379935 at time 11230
Additional hops: 1806
Adding flit 386260 as NACK at time 11331
Reenqueueing errored packet 386260 at time 11338
Additional hops: 1811
Adding flit 378550 as NACK at time 11345
Reenqueueing errored packet 378550 at time 11356
Additional hops: 1820
Adding flit 352039 as NACK at time 11424
Reenqueueing errored packet 352039 at time 11443
Additional hops: 1828
Adding flit 367007 as NACK at time 11513
Reenqueueing errored packet 367007 at time 11530
Additional hops: 1834
Adding flit 389572 as NACK at time 11615
Additional hops: 1837
Adding flit 387040 as NACK at time 11623
Reenqueueing errored packet 389572 at time 11628
Reenqueueing errored packet 387040 at time 11630
Additional hops: 1839
Adding flit 411080 as NACK at time 11708
Reenqueueing errored packet 411080 at time 11713
Additional hops: 1846
Adding flit 376046 as NACK at time 11713
Reenqueueing errored packet 376046 at time 11728
Additional hops: 1853
Adding flit 381660 as NACK at time 11729
Reenqueueing errored packet 381660 at time 11744
Additional hops: 1863
Adding flit 346646 as NACK at time 11753
Reenqueueing errored packet 346646 at time 11774
Additional hops: 1871
Adding flit 403380 as NACK at time 11867
Reenqueueing errored packet 403380 at time 11884
Additional hops: 1880
Adding flit 361245 as NACK at time 11902
Reenqueueing errored packet 361245 at time 11921
Additional hops: 1882
Adding flit 419382 as NACK at time 11942
Reenqueueing errored packet 419382 at time 11947
Additional hops: 1887
Adding flit 419900 as NACK at time 11975
Reenqueueing errored packet 419900 at time 11986
Additional hops: 1894
Adding flit 403110 as NACK at time 12008
Additional hops: 1902
Adding flit 377267 as NACK at time 12009
Reenqueueing errored packet 403110 at time 12023
Reenqueueing errored packet 377267 at time 12026
Additional hops: 1910
Adding flit 411522 as NACK at time 12119
Reenqueueing errored packet 411522 at time 12136
Additional hops: 1917
Adding flit 375436 as NACK at time 12138
Additional hops: 1923
Adding flit 387383 as NACK at time 12140
Reenqueueing errored packet 387383 at time 12153
Reenqueueing errored packet 375436 at time 12153
Additional hops: 1931
Adding flit 389700 as NACK at time 12216
Additional hops: 1938
Adding flit 397716 as NACK at time 12221
Reenqueueing errored packet 389700 at time 12233
Reenqueueing errored packet 397716 at time 12236
Additional hops: 1949
Adding flit 366162 as NACK at time 12340
Reenqueueing errored packet 366162 at time 12363
Additional hops: 1963
Adding flit 357069 as NACK at time 12410
Additional hops: 1972
Adding flit 367404 as NACK at time 12433
Reenqueueing errored packet 357069 at time 12439
Additional hops: 1976
Adding flit 436923 as NACK at time 12449
Reenqueueing errored packet 367404 at time 12452
Reenqueueing errored packet 436923 at time 12458
Additional hops: 1986
Adding flit 369839 as NACK at time 12521
Additional hops: 1997
Adding flit 385468 as NACK at time 12538
Reenqueueing errored packet 369839 at time 12542
Reenqueueing errored packet 385468 at time 12561
Additional hops: 2007
Adding flit 381796 as NACK at time 12663
Reenqueueing errored packet 381796 at time 12684
Additional hops: 2013
Adding flit 403427 as NACK at time 12703
Reenqueueing errored packet 403427 at time 12716
Additional hops: 2022
Adding flit 400805 as NACK at time 12753
Reenqueueing errored packet 400805 at time 12772
Additional hops: 2030
Adding flit 385659 as NACK at time 12788
Additional hops: 2039
Adding flit 396538 as NACK at time 12801
Reenqueueing errored packet 385659 at time 12805
Reenqueueing errored packet 396538 at time 12820
Additional hops: 2043
Adding flit 451065 as NACK at time 12853
Reenqueueing errored packet 451065 at time 12862
Additional hops: 2054
Adding flit 377523 as NACK at time 12885
Additional hops: 2061
Adding flit 402628 as NACK at time 12899
Reenqueueing errored packet 377523 at time 12908
Reenqueueing errored packet 402628 at time 12914
Additional hops: 2067
Adding flit 422903 as NACK at time 12935
Reenqueueing errored packet 422903 at time 12948
Additional hops: 2073
Adding flit 445275 as NACK at time 12970
Reenqueueing errored packet 445275 at time 12983
Additional hops: 2080
Adding flit 433543 as NACK at time 13041
Additional hops: 2092
Adding flit 408174 as NACK at time 13055
Reenqueueing errored packet 433543 at time 13056
Reenqueueing errored packet 408174 at time 13080
Additional hops: 2096
Adding flit 461281 as NACK at time 13192
Reenqueueing errored packet 461281 at time 13201
Additional hops: 2103
Adding flit 415514 as NACK at time 13378
Reenqueueing errored packet 415514 at time 13393
Additional hops: 2109
Adding flit 411052 as NACK at time 13394
Reenqueueing errored packet 411052 at time 13407
Additional hops: 2114
Adding flit 441385 as NACK at time 13619
Reenqueueing errored packet 441385 at time 13630
Additional hops: 2124
Adding flit 400478 as NACK at time 13646
Reenqueueing errored packet 400478 at time 13667
Additional hops: 2132
Adding flit 410825 as NACK at time 13919
Reenqueueing errored packet 410825 at time 13936
Additional hops: 2138
Adding flit 468433 as NACK at time 14039
Reenqueueing errored packet 468433 at time 14052
Additional hops: 2145
Adding flit 449784 as NACK at time 14142
Additional hops: 2150
Adding flit 442679 as NACK at time 14143
Additional hops: 2159
Adding flit 431008 as NACK at time 14151
Reenqueueing errored packet 442679 at time 14154
Reenqueueing errored packet 449784 at time 14157
Additional hops: 2164
Adding flit 497406 as NACK at time 14168
Reenqueueing errored packet 431008 at time 14170
Additional hops: 2172
Adding flit 462487 as NACK at time 14170
Reenqueueing errored packet 497406 at time 14179
Reenqueueing errored packet 462487 at time 14187
Additional hops: 2175
Adding flit 465251 as NACK at time 14289
Reenqueueing errored packet 465251 at time 14296
Additional hops: 2179
Adding flit 477296 as NACK at time 14308
Reenqueueing errored packet 477296 at time 14317
Additional hops: 2190
Adding flit 446347 as NACK at time 14389
Reenqueueing errored packet 446347 at time 14412
Additional hops: 2196
Adding flit 471551 as NACK at time 14502
Reenqueueing errored packet 471551 at time 14515
Additional hops: 2200
Adding flit 453341 as NACK at time 14527
Reenqueueing errored packet 453341 at time 14536
Additional hops: 2206
Adding flit 474785 as NACK at time 14542
Reenqueueing errored packet 474785 at time 14555
Additional hops: 2215
Adding flit 447107 as NACK at time 14565
Reenqueueing errored packet 447107 at time 14584
Additional hops: 2222
Adding flit 435511 as NACK at time 14594
Additional hops: 2227
Adding flit 432674 as NACK at time 14602
Reenqueueing errored packet 435511 at time 14609
Reenqueueing errored packet 432674 at time 14613
Additional hops: 2235
Adding flit 452555 as NACK at time 14701
Reenqueueing errored packet 452555 at time 14718
Additional hops: 2241
Adding flit 446736 as NACK at time 14828
Reenqueueing errored packet 446736 at time 14841
Additional hops: 2248
Adding flit 457606 as NACK at time 14844
Reenqueueing errored packet 457606 at time 14859
Additional hops: 2252
Adding flit 494623 as NACK at time 14872
Reenqueueing errored packet 494623 at time 14881
Additional hops: 2255
Adding flit 507501 as NACK at time 14951
Reenqueueing errored packet 507501 at time 14958
Additional hops: 2259
Adding flit 488085 as NACK at time 14959
Reenqueueing errored packet 488085 at time 14968
Additional hops: 2267
Adding flit 518642 as NACK at time 14978
Reenqueueing errored packet 518642 at time 14995
Additional hops: 2274
Adding flit 444796 as NACK at time 15115
Reenqueueing errored packet 444796 at time 15130
Additional hops: 2282
Adding flit 481508 as NACK at time 15143
Reenqueueing errored packet 481508 at time 15160
Additional hops: 2293
Adding flit 467859 as NACK at time 15165
Reenqueueing errored packet 467859 at time 15188
Additional hops: 2297
Adding flit 505809 as NACK at time 15197
Additional hops: 2304
Adding flit 495963 as NACK at time 15201
Reenqueueing errored packet 505809 at time 15206
Reenqueueing errored packet 495963 at time 15216
Additional hops: 2314
Adding flit 499334 as NACK at time 15231
Additional hops: 2326
Adding flit 447847 as NACK at time 15245
Reenqueueing errored packet 499334 at time 15252
Reenqueueing errored packet 447847 at time 15270
Additional hops: 2335
Adding flit 463037 as NACK at time 15359
Reenqueueing errored packet 463037 at time 15378
Additional hops: 2344
Adding flit 468608 as NACK at time 15379
Reenqueueing errored packet 468608 at time 15398
Additional hops: 2352
Adding flit 468412 as NACK at time 15431
Additional hops: 2357
Adding flit 524829 as NACK at time 15446
Reenqueueing errored packet 468412 at time 15448
Additional hops: 2363
Adding flit 513221 as NACK at time 15448
Reenqueueing errored packet 524829 at time 15457
Reenqueueing errored packet 513221 at time 15461
Additional hops: 2369
Adding flit 515665 as NACK at time 15496
Reenqueueing errored packet 515665 at time 15509
Additional hops: 2374
Adding flit 506404 as NACK at time 15511
Reenqueueing errored packet 506404 at time 15522
Additional hops: 2380
Adding flit 528211 as NACK at time 15546
Reenqueueing errored packet 528211 at time 15559
Additional hops: 2386
Adding flit 494360 as NACK at time 15609
Reenqueueing errored packet 494360 at time 15622
Additional hops: 2389
Adding flit 491821 as NACK at time 15640
Additional hops: 2393
Adding flit 519928 as NACK at time 15642
Reenqueueing errored packet 491821 at time 15647
Reenqueueing errored packet 519928 at time 15651
Additional hops: 2400
Adding flit 465998 as NACK at time 15718
Additional hops: 2407
Adding flit 516888 as NACK at time 15807
Reenqueueing errored packet 516888 at time 15822
Additional hops: 2416
Adding flit 502098 as NACK at time 15866
Additional hops: 2424
Adding flit 529188 as NACK at time 15869
Reenqueueing errored packet 502098 at time 15885
Reenqueueing errored packet 529188 at time 15886
Additional hops: 2434
Adding flit 470338 as NACK at time 15985
Additional hops: 2439
Adding flit 543943 as NACK at time 15993
Reenqueueing errored packet 543943 at time 16004
Reenqueueing errored packet 470338 at time 16006
Additional hops: 2449
Adding flit 508609 as NACK at time 16026
Additional hops: 2455
Adding flit 460587 as NACK at time 16043
Reenqueueing errored packet 508609 at time 16047
Additional hops: 2462
Adding flit 527934 as NACK at time 16047
Reenqueueing errored packet 527934 at time 16062
Additional hops: 2466
Adding flit 527683 as NACK at time 16068
Reenqueueing errored packet 527683 at time 16077
Additional hops: 2476
Adding flit 474163 as NACK at time 16134
Reenqueueing errored packet 474163 at time 16155
Additional hops: 2482
Adding flit 525490 as NACK at time 16172
Reenqueueing errored packet 525490 at time 16185
Additional hops: 2488
Adding flit 552194 as NACK at time 16232
Reenqueueing errored packet 552194 at time 16245
Additional hops: 2495
Adding flit 528094 as NACK at time 16275
Additional hops: 2500
Adding flit 571708 as NACK at time 16286
Reenqueueing errored packet 528094 at time 16290
Reenqueueing errored packet 571708 at time 16297
Additional hops: 2509
Adding flit 521575 as NACK at time 16341
Reenqueueing errored packet 521575 at time 16360
Additional hops: 2510
Adding flit 577818 as NACK at time 16442
Reenqueueing errored packet 577818 at time 16445
Additional hops: 2512
Adding flit 560895 as NACK at time 16463
Reenqueueing errored packet 560895 at time 16468
Additional hops: 2515
Adding flit 565337 as NACK at time 16523
Reenqueueing errored packet 565337 at time 16530
Additional hops: 2525
Adding flit 497556 as NACK at time 16583
Reenqueueing errored packet 497556 at time 16604
Additional hops: 2535
Adding flit 461802 as NACK at time 16614
Reenqueueing errored packet 461802 at time 16635
Additional hops: 2542
Adding flit 495182 as NACK at time 16668
Reenqueueing errored packet 495182 at time 16683
Additional hops: 2552
Adding flit 546829 as NACK at time 16703
Reenqueueing errored packet 546829 at time 16724
Additional hops: 2558
Adding flit 553051 as NACK at time 16850
Reenqueueing errored packet 553051 at time 16863
Additional hops: 2565
Adding flit 521522 as NACK at time 16960
Reenqueueing errored packet 521522 at time 16975
Additional hops: 2575
Adding flit 567908 as NACK at time 17079
Reenqueueing errored packet 567908 at time 17100
Additional hops: 2584
Adding flit 524093 as NACK at time 17103
Reenqueueing errored packet 524093 at time 17122
Additional hops: 2587
Adding flit 587473 as NACK at time 17235
Reenqueueing errored packet 587473 at time 17242
Additional hops: 2592
Adding flit 540068 as NACK at time 17343
Reenqueueing errored packet 540068 at time 17354
Additional hops: 2603
Adding flit 554062 as NACK at time 17409
Reenqueueing errored packet 554062 at time 17432
Additional hops: 2609
Adding flit 574268 as NACK at time 17445
Reenqueueing errored packet 574268 at time 17458
Additional hops: 2620
Adding flit 541210 as NACK at time 17525
Reenqueueing errored packet 541210 at time 17548
Additional hops: 2628
Adding flit 602130 as NACK at time 17638
Reenqueueing errored packet 602130 at time 17655
Additional hops: 2634
Adding flit 602789 as NACK at time 17687
Reenqueueing errored packet 602789 at time 17700
Additional hops: 2641
Adding flit 603576 as NACK at time 17720
Reenqueueing errored packet 603576 at time 17735
Additional hops: 2643
Adding flit 622248 as NACK at time 17748
Reenqueueing errored packet 622248 at time 17753
Additional hops: 2650
Adding flit 563338 as NACK at time 17793
Reenqueueing errored packet 563338 at time 17808
Additional hops: 2656
Adding flit 622741 as NACK at time 17854
Reenqueueing errored packet 622741 at time 17867
Additional hops: 2664
Adding flit 572374 as NACK at time 17871
Additional hops: 2672
Adding flit 608172 as NACK at time 17874
Reenqueueing errored packet 572374 at time 17888
Reenqueueing errored packet 608172 at time 17891
Additional hops: 2679
Adding flit 561524 as NACK at time 17893
Reenqueueing errored packet 561524 at time 17908
Additional hops: 2686
Adding flit 598122 as NACK at time 18009
Reenqueueing errored packet 598122 at time 18024
Additional hops: 2689
Adding flit 576296 as NACK at time 18111
Additional hops: 2701
Adding flit 582055 as NACK at time 18129
Additional hops: 2711
Adding flit 580350 as NACK at time 18140
Additional hops: 2718
Adding flit 539664 as NACK at time 18145
Reenqueueing errored packet 582055 at time 18154
Reenqueueing errored packet 580350 at time 18161
Additional hops: 2731
Adding flit 536869 as NACK at time 18199
Reenqueueing errored packet 536869 at time 18226
Additional hops: 2736
Adding flit 562103 as NACK at time 18266
Reenqueueing errored packet 562103 at time 18277
Additional hops: 2745
Adding flit 546943 as NACK at time 18279
Additional hops: 2750
Adding flit 611970 as NACK at time 18290
Reenqueueing errored packet 611970 at time 18301
Additional hops: 2758
Adding flit 616873 as NACK at time 18370
Reenqueueing errored packet 616873 at time 18387
Additional hops: 2764
Adding flit 585624 as NACK at time 18406
Additional hops: 2769
Adding flit 631791 as NACK at time 18408
Reenqueueing errored packet 631791 at time 18419
Additional hops: 2775
Adding flit 602583 as NACK at time 18430
Reenqueueing errored packet 602583 at time 18443
Additional hops: 2781
Adding flit 614191 as NACK at time 18453
Reenqueueing errored packet 614191 at time 18466
Additional hops: 2789
Adding flit 581581 as NACK at time 18506
Additional hops: 2800
Adding flit 564105 as NACK at time 18517
Reenqueueing errored packet 564105 at time 18540
Additional hops: 2805
Adding flit 614041 as NACK at time 18561
Additional hops: 2816
Adding flit 542258 as NACK at time 18569
Reenqueueing errored packet 614041 at time 18572
Reenqueueing errored packet 542258 at time 18592
Additional hops: 2822
Adding flit 650008 as NACK at time 18651
Reenqueueing errored packet 650008 at time 18664
Additional hops: 2827
Adding flit 633610 as NACK at time 18673
Reenqueueing errored packet 633610 at time 18684
Additional hops: 2835
Adding flit 617833 as NACK at time 18687
Additional hops: 2844
Adding flit 565468 as NACK at time 18689
Additional hops: 2850
Adding flit 616915 as NACK at time 18697
Reenqueueing errored packet 617833 at time 18704
Reenqueueing errored packet 616915 at time 18710
Additional hops: 2854
Adding flit 620880 as NACK at time 18745
Additional hops: 2859
Adding flit 644419 as NACK at time 18748
Reenqueueing errored packet 620880 at time 18754
Reenqueueing errored packet 644419 at time 18759
Additional hops: 2865
Adding flit 604988 as NACK at time 18762
Reenqueueing errored packet 604988 at time 18775
Additional hops: 2878
Adding flit 559363 as NACK at time 18792
Reenqueueing errored packet 559363 at time 18819
Additional hops: 2879
Adding flit 658956 as NACK at time 18820
Reenqueueing errored packet 658956 at time 18823
Additional hops: 2888
Adding flit 570396 as NACK at time 18824
Reenqueueing errored packet 570396 at time 18843
Additional hops: 2893
Adding flit 648250 as NACK at time 19028
Reenqueueing errored packet 648250 at time 19039
Additional hops: 2906
Adding flit 550493 as NACK at time 19119
Additional hops: 2913
Adding flit 594152 as NACK at time 19126
Reenqueueing errored packet 594152 at time 19141
Reenqueueing errored packet 550493 at time 19146
Additional hops: 2918
Adding flit 655201 as NACK at time 19169
Reenqueueing errored packet 655201 at time 19180
Additional hops: 2925
Adding flit 658384 as NACK at time 19234
Reenqueueing errored packet 658384 at time 19249
Additional hops: 2934
Adding flit 610366 as NACK at time 19301
Reenqueueing errored packet 610366 at time 19320
Additional hops: 2941
Adding flit 639940 as NACK at time 19359
Additional hops: 2956
Adding flit 572036 as NACK at time 19371
Reenqueueing errored packet 639940 at time 19374
Reenqueueing errored packet 572036 at time 19402
Additional hops: 2967
Adding flit 579673 as NACK at time 19498
Reenqueueing errored packet 579673 at time 19521
Additional hops: 2973
Adding flit 601997 as NACK at time 19541
Additional hops: 2978
Adding flit 586681 as NACK at time 19545
Reenqueueing errored packet 601997 at time 19554
Additional hops: 2983
Adding flit 683373 as NACK at time 19561
Reenqueueing errored packet 683373 at time 19572
Additional hops: 2989
Adding flit 672173 as NACK at time 19679
Additional hops: 2995
Adding flit 625179 as NACK at time 19687
Reenqueueing errored packet 672173 at time 19692
Additional hops: 3000
Adding flit 652408 as NACK at time 19698
Reenqueueing errored packet 625179 at time 19700
Additional hops: 3011
Adding flit 655637 as NACK at time 19703
Reenqueueing errored packet 652408 at time 19709
Additional hops: 3026
Adding flit 580480 as NACK at time 19716
Additional hops: 3039
Adding flit 586455 as NACK at time 19721
Reenqueueing errored packet 655637 at time 19726
Reenqueueing errored packet 580480 at time 19747
Reenqueueing errored packet 586455 at time 19748
Additional hops: 3048
Adding flit 572412 as NACK at time 19781
Additional hops: 3056
Adding flit 656711 as NACK at time 19798
Reenqueueing errored packet 572412 at time 19800
Reenqueueing errored packet 656711 at time 19815
Additional hops: 3064
Adding flit 587343 as NACK at time 19821
Reenqueueing errored packet 587343 at time 19838
Additional hops: 3075
Adding flit 565971 as NACK at time 19845
Additional hops: 3081
Adding flit 675732 as NACK at time 19848
Additional hops: 3089
Adding flit 639189 as NACK at time 19854
Reenqueueing errored packet 675732 at time 19861
Reenqueueing errored packet 565971 at time 19868
Reenqueueing errored packet 639189 at time 19871
Additional hops: 3098
Adding flit 642677 as NACK at time 19909
Reenqueueing errored packet 642677 at time 19928
Additional hops: 3104
Adding flit 629698 as NACK at time 19971
Reenqueueing errored packet 629698 at time 19984
Class 0:
Packet latency average = 735.469
	minimum = 5
	maximum = 5929
Network latency average = 733.474
	minimum = 5
	maximum = 4256
Slowest packet = 36687
Flit latency average = 733.474
	minimum = 5
	maximum = 4256
Slowest flit = 500551
Fragmentation average = 0
	minimum = 0
	maximum = 0
Injected packet rate average = 0.546193
	minimum = 0.52475 (at node 33)
	maximum = 0.55735 (at node 61)
Accepted packet rate average = 0.505417
	minimum = 0.49625 (at node 21)
	maximum = 0.51785 (at node 39)
Injected flit rate average = 0.546193
	minimum = 0.52475 (at node 33)
	maximum = 0.55735 (at node 61)
Accepted flit rate average= 0.505417
	minimum = 0.49625 (at node 21)
	maximum = 0.51785 (at node 39)
Injected packet length average = 1
Accepted packet length average = 1
Total in-flight flits = 52208 (0 measured)
latency change    = 0.504137
throughput change = 0.006588
Average latency for class 0 exceeded 500 cycles. Aborting simulation.
Too many sample periods needed to converge
Simulation unstable, ending ...
Total run time 133.085
