BEGIN Configuration File: examples/ecc_mesh88_config_1_0.500_link_2
// $Id$

// Copyright (c) 2007-2015, Trustees of The Leland Stanford Junior University
// All rights reserved.
//
// Redistribution and use in source and binary forms, with or without
// modification, are permitted provided that the following conditions are met:
//
// Redistributions of source code must retain the above copyright notice, this
// list of conditions and the following disclaimer.
// Redistributions in binary form must reproduce the above copyright notice,
// this list of conditions and the following disclaimer in the documentation
// and/or other materials provided with the distribution.
//
// THIS SOFTWARE IS PROVIDED BY THE COPYRIGHT HOLDERS AND CONTRIBUTORS "AS IS"
// AND ANY EXPRESS OR IMPLIED WARRANTIES, INCLUDING, BUT NOT LIMITED TO, THE
// IMPLIED WARRANTIES OF MERCHANTABILITY AND FITNESS FOR A PARTICULAR PURPOSE
// ARE DISCLAIMED. IN NO EVENT SHALL THE COPYRIGHT OWNER OR CONTRIBUTORS BE
// LIABLE FOR ANY DIRECT, INDIRECT, INCIDENTAL, SPECIAL, EXEMPLARY, OR
// CONSEQUENTIAL DAMAGES (INCLUDING, BUT NOT LIMITED TO, PROCUREMENT OF
// SUBSTITUTE GOODS OR SERVICES; LOSS OF USE, DATA, OR PROFITS; OR BUSINESS
// INTERRUPTION) HOWEVER CAUSED AND ON ANY THEORY OF LIABILITY, WHETHER IN
// CONTRACT, STRICT LIABILITY, OR TORT (INCLUDING NEGLIGENCE OR OTHERWISE)
// ARISING IN ANY WAY OUT OF THE USE OF THIS SOFTWARE, EVEN IF ADVISED OF THE
// POSSIBILITY OF SUCH DAMAGE.

// Dragonfly
//




vc_buf_size = 256;


wait_for_tail_credit = 0;

//
// Router architecture
//
vc_allocator = separable_input_first; 
sw_allocator = separable_input_first;
alloc_iters  = 1;

credit_delay   = 2;
routing_delay  = 0;
vc_alloc_delay = 1;
sw_alloc_delay = 1;
st_final_delay = 1;

input_speedup     = 1;
output_speedup    = 1;
internal_speedup  = 2.0;


warmup_periods = 3;
sim_count          = 1;

sample_period  = 10000;  


routing_function = dor;
num_vcs     = 2;

priority = none;
traffic       = uniform; 

injection_rate = 0.5;
packet_size = 1;
injection_rate_uses_flits=1;

topology = mesh;

k  = 8;
n  = 2;

fer = 2;
ecc = link;
correctable = 1;

watch_out=-;
watch_file = watch.txt;

ecc = link;

stats_out = examples/ecc_mesh88_config_1_0.500_link_2.m;

END Configuration File: examples/ecc_mesh88_config_1_0.500_link_2
Requeued flit 324
Requeued flit 757
Requeued flit 1056
Requeued flit 668
Requeued flit 145
Requeued flit 2753
Requeued flit 1975
Requeued flit 2715
Requeued flit 2176
Requeued flit 2390
Requeued flit 4393
Requeued flit 4929
Requeued flit 3634
Requeued flit 4322
Requeued flit 6647
Requeued flit 7058
Requeued flit 6531
Requeued flit 8365
Requeued flit 8716
Requeued flit 8398
Requeued flit 8582
Requeued flit 10442
Requeued flit 10321
Requeued flit 10163
Requeued flit 8424
Requeued flit 10871
Requeued flit 10303
Requeued flit 11359
Requeued flit 12735
Requeued flit 11439
Requeued flit 13012
Requeued flit 12991
Requeued flit 13024
Requeued flit 12936
Requeued flit 13543
Requeued flit 13320
Requeued flit 13752
Requeued flit 14711
Requeued flit 13607
Requeued flit 14323
Requeued flit 14674
Requeued flit 14557
Requeued flit 13247
Requeued flit 15368
Requeued flit 16241
Requeued flit 14935
Requeued flit 17308
Requeued flit 16695
Requeued flit 19141
Requeued flit 18298
Requeued flit 18930
Requeued flit 20010
Requeued flit 17941
Requeued flit 19103
Requeued flit 21576
Requeued flit 22006
Requeued flit 21627
Requeued flit 20776
Requeued flit 21527
Requeued flit 23173
Requeued flit 23699
Requeued flit 23995
Requeued flit 24464
Requeued flit 24425
Requeued flit 23906
Requeued flit 25362
Requeued flit 24844
Requeued flit 24875
Requeued flit 25030
Requeued flit 27033
Requeued flit 27781
Requeued flit 28622
Requeued flit 29856
Requeued flit 30175
Requeued flit 30233
Requeued flit 29264
Requeued flit 31237
Requeued flit 32193
Requeued flit 32718
Requeued flit 34177
Requeued flit 34472
Requeued flit 36917
Requeued flit 34818
Requeued flit 37985
Requeued flit 38096
Requeued flit 38189
Requeued flit 38749
Requeued flit 39567
Requeued flit 40443
Requeued flit 38699
Requeued flit 40857
Requeued flit 40387
Requeued flit 41889
Requeued flit 40663
Requeued flit 40527
Requeued flit 41937
Requeued flit 43479
Requeued flit 41882
Requeued flit 42002
Requeued flit 43779
Requeued flit 44375
Requeued flit 41988
Requeued flit 43648
Requeued flit 45607
Requeued flit 46874
Requeued flit 46597
Requeued flit 45950
Requeued flit 45992
Requeued flit 47842
Requeued flit 47496
Requeued flit 49510
Requeued flit 49163
Requeued flit 50338
Requeued flit 49399
Requeued flit 47333
Requeued flit 49145
Requeued flit 51664
Requeued flit 50761
Requeued flit 50781
Requeued flit 51999
Requeued flit 49765
Requeued flit 51782
Requeued flit 52425
Requeued flit 53625
Requeued flit 54552
Requeued flit 54970
Requeued flit 55258
Requeued flit 54228
Requeued flit 53929
Requeued flit 53688
Requeued flit 56111
Requeued flit 56220
Requeued flit 53706
Requeued flit 55333
Requeued flit 56155
Requeued flit 57309
Requeued flit 58373
Requeued flit 56996
Requeued flit 58778
Requeued flit 56156
Requeued flit 59409
Requeued flit 59924
Requeued flit 60895
Requeued flit 59271
Requeued flit 60353
Requeued flit 61300
Requeued flit 60797
Requeued flit 61472
Requeued flit 62216
Requeued flit 58812
Requeued flit 61985
Requeued flit 60171
Requeued flit 62883
Requeued flit 62601
Requeued flit 64553
Requeued flit 65253
Requeued flit 64630
Requeued flit 64774
Requeued flit 64035
Requeued flit 66172
Requeued flit 65688
Requeued flit 64284
Requeued flit 65434
Requeued flit 68261
Requeued flit 68637
Requeued flit 67770
Requeued flit 67901
Requeued flit 70476
Requeued flit 71328
Requeued flit 70222
Requeued flit 72195
Requeued flit 71958
Requeued flit 68432
Requeued flit 71777
Requeued flit 74158
Requeued flit 74411
Requeued flit 74177
Requeued flit 74972
Requeued flit 72576
Requeued flit 73792
Requeued flit 71994
Requeued flit 75439
Requeued flit 77103
Requeued flit 74062
Requeued flit 78526
Requeued flit 79045
Requeued flit 79402
Requeued flit 78581
Requeued flit 78565
Requeued flit 78655
Requeued flit 78046
Requeued flit 78510
Requeued flit 78988
Requeued flit 79461
Requeued flit 80407
Requeued flit 81870
Requeued flit 80011
Requeued flit 81945
Requeued flit 80974
Requeued flit 81372
Requeued flit 83446
Requeued flit 82784
Requeued flit 81954
Requeued flit 81824
Requeued flit 82655
Requeued flit 84627
Requeued flit 81781
Requeued flit 84308
Requeued flit 84094
Requeued flit 86121
Requeued flit 85391
Requeued flit 87174
Requeued flit 84044
Requeued flit 86458
Requeued flit 82852
Requeued flit 87615
Requeued flit 86855
Requeued flit 88730
Requeued flit 89473
Requeued flit 89731
Requeued flit 91448
Requeued flit 90616
Requeued flit 91545
Requeued flit 90303
Requeued flit 88567
Requeued flit 92741
Requeued flit 93731
Requeued flit 94952
Requeued flit 95060
Requeued flit 96675
Requeued flit 94255
Requeued flit 96971
Requeued flit 95559
Requeued flit 97959
Requeued flit 99219
Requeued flit 99531
Requeued flit 99884
Requeued flit 97509
Requeued flit 101481
Requeued flit 101539
Requeued flit 101930
Requeued flit 102850
Requeued flit 98965
Requeued flit 103762
Requeued flit 103870
Requeued flit 103333
Requeued flit 106385
Requeued flit 106346
Requeued flit 105814
Requeued flit 106915
Requeued flit 108616
Requeued flit 109057
Requeued flit 107160
Requeued flit 106138
Requeued flit 109619
Requeued flit 108455
Requeued flit 109877
Requeued flit 107554
Requeued flit 106970
Requeued flit 110743
Requeued flit 111511
Requeued flit 112700
Requeued flit 110744
Requeued flit 112317
Requeued flit 111721
Requeued flit 111299
Requeued flit 111904
Requeued flit 113612
Requeued flit 112504
Requeued flit 111431
Requeued flit 112321
Requeued flit 112839
Requeued flit 114596
Requeued flit 116187
Requeued flit 116703
Requeued flit 118976
Requeued flit 118174
Requeued flit 118517
Requeued flit 119102
Requeued flit 117134
Requeued flit 120538
Requeued flit 120241
Requeued flit 119188
Requeued flit 121197
Requeued flit 120426
Requeued flit 121168
Requeued flit 120219
Requeued flit 121026
Requeued flit 124052
Requeued flit 122866
Requeued flit 119513
Requeued flit 122436
Requeued flit 124029
Requeued flit 125094
Requeued flit 125547
Requeued flit 125491
Requeued flit 126116
Requeued flit 127006
Requeued flit 128649
Requeued flit 129032
Requeued flit 127814
Requeued flit 130300
Requeued flit 131027
Requeued flit 131552
Requeued flit 131409
Requeued flit 130612
Requeued flit 131648
Requeued flit 130205
Requeued flit 131469
Requeued flit 132233
Requeued flit 133081
Requeued flit 133719
Requeued flit 134369
Requeued flit 135150
Requeued flit 134705
Requeued flit 136071
Requeued flit 134367
Requeued flit 136138
Requeued flit 136601
Requeued flit 137538
Requeued flit 135382
Requeued flit 137841
Requeued flit 137976
Requeued flit 134061
Requeued flit 135319
Requeued flit 137847
Requeued flit 140349
Requeued flit 136883
Requeued flit 138672
Requeued flit 135387
Requeued flit 141431
Requeued flit 142240
Requeued flit 141712
Requeued flit 143444
Requeued flit 143523
Requeued flit 142590
Requeued flit 143116
Requeued flit 142714
Requeued flit 144383
Requeued flit 143985
Requeued flit 143962
Requeued flit 142905
Requeued flit 143577
Requeued flit 144177
Requeued flit 144196
Requeued flit 144281
Requeued flit 146599
Requeued flit 146421
Requeued flit 147358
Requeued flit 147953
Requeued flit 147526
Requeued flit 146955
Requeued flit 147216
Requeued flit 147732
Requeued flit 148623
Requeued flit 148020
Requeued flit 148840
Requeued flit 148495
Requeued flit 150737
Requeued flit 151060
Requeued flit 150803
Requeued flit 152834
Requeued flit 151941
Requeued flit 153203
Requeued flit 153400
Requeued flit 154227
Requeued flit 155484
Requeued flit 155172
Requeued flit 151770
Requeued flit 156006
Requeued flit 156165
Requeued flit 156217
Requeued flit 157256
Requeued flit 157420
Requeued flit 155857
Requeued flit 156020
Requeued flit 158168
Requeued flit 156409
Requeued flit 158061
Requeued flit 159202
Requeued flit 157668
Requeued flit 158134
Requeued flit 159118
Requeued flit 155501
Requeued flit 159827
Requeued flit 158495
Requeued flit 159782
Requeued flit 160474
Requeued flit 163764
Requeued flit 163010
Requeued flit 161855
Requeued flit 163102
Requeued flit 163701
Requeued flit 164176
Requeued flit 165550
Requeued flit 164156
Requeued flit 164168
Requeued flit 160866
Requeued flit 165366
Requeued flit 166147
Requeued flit 165370
Requeued flit 165414
Requeued flit 166112
Requeued flit 164251
Requeued flit 167190
Requeued flit 167229
Requeued flit 167069
Requeued flit 165072
Requeued flit 164383
Requeued flit 162396
Requeued flit 163209
Requeued flit 168198
Requeued flit 168871
Requeued flit 166649
Requeued flit 168663
Requeued flit 169537
Requeued flit 166742
Requeued flit 162790
Requeued flit 168071
Requeued flit 170260
Requeued flit 170946
Requeued flit 172538
Requeued flit 171676
Requeued flit 173920
Requeued flit 174945
Requeued flit 175047
Requeued flit 175519
Requeued flit 173055
Requeued flit 175064
Requeued flit 170818
Requeued flit 177047
Requeued flit 174994
Requeued flit 178701
Requeued flit 175907
Requeued flit 178651
Requeued flit 178644
Requeued flit 175806
Requeued flit 176914
Requeued flit 179968
Requeued flit 179744
Requeued flit 180996
Requeued flit 180588
Requeued flit 180706
Requeued flit 181884
Requeued flit 181481
Requeued flit 180670
Requeued flit 182392
Requeued flit 182398
Requeued flit 180224
Requeued flit 179858
Requeued flit 180863
Requeued flit 183946
Requeued flit 183964
Requeued flit 184319
Requeued flit 184465
Requeued flit 181496
Requeued flit 184762
Requeued flit 182599
Requeued flit 185841
Requeued flit 184619
Requeued flit 187159
Requeued flit 186682
Requeued flit 188658
Requeued flit 187939
Requeued flit 187246
Requeued flit 188994
Requeued flit 188184
Requeued flit 188658
Requeued flit 188593
Requeued flit 186738
Requeued flit 186041
Requeued flit 187765
Requeued flit 190466
Requeued flit 191030
5999 | node12 | Enqueuing flit 192022 (packet 192022) at time 5999.
5999 | traffic_manager | Finding output VC for flit 192022:
5999 | traffic_manager |   Selected output VC 0.
5999 | network_0/router_1_4 | Adding VC range [0,1] at output port 2 for flit 192022 (input port 4, destination 44).
5999 | node12 | Generating lookahead routing info for flit 192022.
5999 | node12 | Injecting flit 192022 into subnet 0 at time 5999 with priority 0.
6000 | network_0/network_0_fchan_ingress12 | Beginning channel traversal for flit 192022 with delay 1.
6000 | network_0/network_0_fchan_ingress12 | Completed channel traversal for flit 192022.
6001 | network_0/router_1_4 | Received flit 192022 from channel at input 4.
6001 | network_0/router_1_4 | Adding flit 192022 to VC 0 at input 4 (state: idle, empty).
6001 | network_0/router_1_4 | Using precomputed lookahead routing information for VC 0 at input 4 (front: 192022).
6001 | network_0/router_1_4/buf_4/vc_0 | Changing state from idle to vc_alloc.
6001 | network_0/router_1_4 | Beginning VC allocation for VC 0 at input 4 (front: 192022).
6001 | network_0/router_1_4 |   Requesting VC 0 at output 2 (in_pri: 0, out_pri: 0).
6001 | network_0/router_1_4 |   Requesting VC 1 at output 2 (in_pri: 0, out_pri: 0).
6001 | network_0/router_1_4/vc_allocator | Input requests = [ 1 -> [ 4@0 5@0 ]  2 -> [ 0@0 1@0 ]  8 -> [ 4@0 5@0 ]  ], output requests = [ 0 -> [ 2@0 ]  1 -> [ 2@0 ]  4 -> [ 1@0 8@0 ]  5 -> [ 1@0 8@0 ]  ].
6001 | network_0/router_1_4/vc_allocator | Input grants = [ 1 -> 4  2 -> 1  ], output grants = [ 1 -> 2  4 -> 1  ].
6001 | network_0/router_1_4 | VC allocation failed for VC 0 at input 4.
6001 | network_0/router_1_4 | Completed VC allocation for VC 0 at input 4 (front: 192022).
6001 | network_0/router_1_4 |   No output VC allocated.
6001 | network_0/router_1_4 | Beginning VC allocation for VC 0 at input 4 (front: 192022).
6001 | network_0/router_1_4 |   VC 0 at output 2 is in use by VC 1 at input 0 (front flit: 191785).
6001 | network_0/router_1_4 |   Requesting VC 1 at output 2 (in_pri: 0, out_pri: 0).
6001 | network_0/router_1_4/vc_allocator | Input requests = [ 8 -> [ 5@0 ]  ], output requests = [ 5 -> [ 8@0 ]  ].
6001 | network_0/router_1_4/vc_allocator | Input grants = [ 8 -> 5  ], output grants = [ 5 -> 8  ].
6001 | network_0/router_1_4 | Assigning VC 1 at output 2 to VC 0 at input 4.
6001 | network_0/router_1_4 | Completed VC allocation for VC 0 at input 4 (front: 192022).
6001 | network_0/router_1_4 |   Acquiring assigned VC 1 at output 2.
6001 | network_0/router_1_4/buf_4/vc_0 | Changing state from vc_alloc to active.
6002 | network_0/router_1_4 | Beginning switch allocation for VC 0 at input 4 (front: 192022).
6002 | network_0/router_1_4 |   Requesting output 2.0 (non-spec, pri: 0).
6002 | network_0/router_1_4/sw_allocator | Input requests = [ 4 -> [ 2@0 ]  ], output requests = [ 2 -> [ 4@0 ]  ].
6002 | network_0/router_1_4/sw_allocator | Input grants = [ 4 -> 2  ], output grants = [ 2 -> 4  ].
6002 | network_0/router_1_4 | Assigning output 2.0 to VC 0 at input 4.0.
6002 | network_0/router_1_4 | Completed switch allocation for VC 0 at input 4 (front: 192022).
6002 | network_0/router_1_4 |   Scheduling switch connection from input 4.0 to output 2.0.
6002 | network_0/router_1_4 | Updating lookahead routing information for flit 192022.
6002 | network_0/router_2_4 | Adding VC range [0,1] at output port 2 for flit 192022 (input port 3, destination 44).
6002 | network_0/router_1_4 | Beginning crossbar traversal for flit 192022 from input 4.0 to output 2.0.
6002 | network_0/router_1_4 | Completed crossbar traversal for flit 192022 from input 4.0 to output 2.0.
6002 | network_0/router_1_4 | Buffering flit 192022 at output 2.
6004 | network_0/router_1_4 | Sending flit 192022 to channel at output 2.
6005 | network_0/network_0_fchan_50 | Beginning channel traversal for flit 192022 with delay 1.
6005 | network_0/network_0_fchan_50 | Completed channel traversal for flit 192022.
6006 | network_0/router_2_4 | Received flit 192022 from channel at input 3.
6006 | network_0/router_2_4 | Adding flit 192022 to VC 1 at input 3 (state: idle, empty).
6006 | network_0/router_2_4 | Using precomputed lookahead routing information for VC 1 at input 3 (front: 192022).
6006 | network_0/router_2_4/buf_3/vc_1 | Changing state from idle to vc_alloc.
6006 | network_0/router_2_4 | Beginning VC allocation for VC 1 at input 3 (front: 192022).
6006 | network_0/router_2_4 |   VC 0 at output 2 is in use by VC 0 at input 3 (front flit: 191785).
6006 | network_0/router_2_4 |   Requesting VC 1 at output 2 (in_pri: 0, out_pri: 0).
6006 | network_0/router_2_4/vc_allocator | Input requests = [ 1 -> [ 2@0 3@0 ]  3 -> [ 0@0 1@0 ]  7 -> [ 5@0 ]  9 -> [ 0@0 1@0 ]  ], output requests = [ 0 -> [ 3@0 9@0 ]  1 -> [ 3@0 9@0 ]  2 -> [ 1@0 ]  3 -> [ 1@0 ]  5 -> [ 7@0 ]  ].
6006 | network_0/router_2_4/vc_allocator | Input grants = [ 1 -> 2  3 -> 1  7 -> 5  9 -> 0  ], output grants = [ 0 -> 9  1 -> 3  2 -> 1  5 -> 7  ].
6006 | network_0/router_2_4 | Assigning VC 1 at output 2 to VC 1 at input 3.
6006 | network_0/router_2_4 | Completed VC allocation for VC 1 at input 3 (front: 192022).
6006 | network_0/router_2_4 |   Acquiring assigned VC 1 at output 2.
6006 | network_0/router_2_4/buf_3/vc_1 | Changing state from vc_alloc to active.
6006 | network_0/router_2_4 | Beginning switch allocation for VC 1 at input 3 (front: 192022).
6006 | network_0/router_2_4 |   Requesting output 2.0 (non-spec, pri: 0).
6006 | network_0/router_2_4/sw_allocator | Input requests = [ 0 -> [ 1@0 ]  1 -> [ 0@0 ]  3 -> [ 2@0 ]  4 -> [ 0@0 ]  ], output requests = [ 0 -> [ 1@0 4@0 ]  1 -> [ 0@0 ]  2 -> [ 3@0 ]  ].
6006 | network_0/router_2_4/sw_allocator | Input grants = [ 0 -> 1  3 -> 2  4 -> 0  ], output grants = [ 0 -> 4  1 -> 0  2 -> 3  ].
6006 | network_0/router_2_4 | Assigning output 2.0 to VC 1 at input 3.0.
6006 | network_0/router_2_4 | Completed switch allocation for VC 1 at input 3 (front: 192022).
6006 | network_0/router_2_4 |   Scheduling switch connection from input 3.0 to output 2.0.
6006 | network_0/router_2_4 | Updating lookahead routing information for flit 192022.
6006 | network_0/router_3_4 | Adding VC range [0,1] at output port 2 for flit 192022 (input port 3, destination 44).
6007 | network_0/router_2_4 | Beginning crossbar traversal for flit 192022 from input 3.0 to output 2.0.
6007 | network_0/router_2_4 | Completed crossbar traversal for flit 192022 from input 3.0 to output 2.0.
6007 | network_0/router_2_4 | Buffering flit 192022 at output 2.
Requeued flit 188273
Requeued flit 192463
Requeued flit 189544
6032 | network_0/router_2_4 | Sending flit 192022 to channel at output 2.
6033 | network_0/network_0_fchan_82 | Beginning channel traversal for flit 192022 with delay 1.
6033 | network_0/network_0_fchan_82 | Completed channel traversal for flit 192022.
6034 | network_0/router_3_4 | Received flit 192022 from channel at input 3.
6034 | network_0/router_3_4 | Adding flit 192022 to VC 1 at input 3 (state: idle, empty).
6034 | network_0/router_3_4 | Using precomputed lookahead routing information for VC 1 at input 3 (front: 192022).
6034 | network_0/router_3_4/buf_3/vc_1 | Changing state from idle to vc_alloc.
6034 | network_0/router_3_4 | Beginning VC allocation for VC 1 at input 3 (front: 192022).
6034 | network_0/router_3_4 |   Requesting VC 0 at output 2 (in_pri: 0, out_pri: 0).
6034 | network_0/router_3_4 |   VC 1 at output 2 is in use by VC 0 at input 3 (front flit: 191785).
6034 | network_0/router_3_4/vc_allocator | Input requests = [ 1 -> [ 4@0 ]  2 -> [ 6@0 7@0 ]  5 -> [ 8@0 9@0 ]  7 -> [ 4@0 ]  9 -> [ 2@0 3@0 ]  ], output requests = [ 2 -> [ 9@0 ]  3 -> [ 9@0 ]  4 -> [ 1@0 7@0 ]  6 -> [ 2@0 ]  7 -> [ 2@0 ]  8 -> [ 5@0 ]  9 -> [ 5@0 ]  ].
6034 | network_0/router_3_4/vc_allocator | Input grants = [ 2 -> 6  5 -> 8  7 -> 4  9 -> 2  ], output grants = [ 2 -> 9  4 -> 7  6 -> 2  8 -> 5  ].
6034 | network_0/router_3_4 | Assigning VC 0 at output 2 to VC 1 at input 3.
6034 | network_0/router_3_4 | Completed VC allocation for VC 1 at input 3 (front: 192022).
6034 | network_0/router_3_4 |   Acquiring assigned VC 0 at output 2.
6034 | network_0/router_3_4/buf_3/vc_1 | Changing state from vc_alloc to active.
6034 | network_0/router_3_4 | Beginning switch allocation for VC 1 at input 3 (front: 192022).
6034 | network_0/router_3_4 |   Requesting output 2.0 (non-spec, pri: 0).
6034 | network_0/router_3_4/sw_allocator | Input requests = [ 1 -> [ 3@0 ]  2 -> [ 4@0 ]  3 -> [ 2@0 ]  4 -> [ 1@0 ]  ], output requests = [ 1 -> [ 4@0 ]  2 -> [ 3@0 ]  3 -> [ 1@0 ]  4 -> [ 2@0 ]  ].
6034 | network_0/router_3_4/sw_allocator | Input grants = [ 1 -> 3  2 -> 4  3 -> 2  4 -> 1  ], output grants = [ 1 -> 4  2 -> 3  3 -> 1  4 -> 2  ].
6034 | network_0/router_3_4 | Assigning output 2.0 to VC 1 at input 3.0.
6034 | network_0/router_3_4 | Completed switch allocation for VC 1 at input 3 (front: 192022).
6034 | network_0/router_3_4 |   Scheduling switch connection from input 3.0 to output 2.0.
6034 | network_0/router_3_4 | Updating lookahead routing information for flit 192022.
6034 | network_0/router_4_4 | Adding VC range [0,1] at output port 2 for flit 192022 (input port 3, destination 44).
6035 | network_0/router_3_4 | Beginning crossbar traversal for flit 192022 from input 3.0 to output 2.0.
6035 | network_0/router_3_4 | Completed crossbar traversal for flit 192022 from input 3.0 to output 2.0.
6035 | network_0/router_3_4 | Buffering flit 192022 at output 2.
6038 | network_0/router_3_4 | Sending flit 192022 to channel at output 2.
6039 | network_0/network_0_fchan_114 | Beginning channel traversal for flit 192022 with delay 1.
6039 | network_0/network_0_fchan_114 | Completed channel traversal for flit 192022.
6040 | network_0/router_4_4 | Received flit 192022 from channel at input 3.
6040 | network_0/router_4_4 | Adding flit 192022 to VC 0 at input 3 (state: idle, empty).
6040 | network_0/router_4_4 | Using precomputed lookahead routing information for VC 0 at input 3 (front: 192022).
6040 | network_0/router_4_4/buf_3/vc_0 | Changing state from idle to vc_alloc.
6040 | network_0/router_4_4 | Beginning VC allocation for VC 0 at input 3 (front: 192022).
6040 | network_0/router_4_4 |   Requesting VC 0 at output 2 (in_pri: 0, out_pri: 0).
6040 | network_0/router_4_4 |   Requesting VC 1 at output 2 (in_pri: 0, out_pri: 0).
6040 | network_0/router_4_4/vc_allocator | Input requests = [ 1 -> [ 2@0 3@0 ]  3 -> [ 0@0 1@0 ]  4 -> [ 6@0 7@0 ]  6 -> [ 4@0 5@0 ]  ], output requests = [ 0 -> [ 3@0 ]  1 -> [ 3@0 ]  2 -> [ 1@0 ]  3 -> [ 1@0 ]  4 -> [ 6@0 ]  5 -> [ 6@0 ]  6 -> [ 4@0 ]  7 -> [ 4@0 ]  ].
6040 | network_0/router_4_4/vc_allocator | Input grants = [ 1 -> 2  3 -> 1  4 -> 7  6 -> 4  ], output grants = [ 1 -> 3  2 -> 1  4 -> 6  7 -> 4  ].
6040 | network_0/router_4_4 | Assigning VC 0 at output 2 to VC 0 at input 3.
6040 | network_0/router_4_4 | Completed VC allocation for VC 0 at input 3 (front: 192022).
6040 | network_0/router_4_4 |   Acquiring assigned VC 0 at output 2.
6040 | network_0/router_4_4/buf_3/vc_0 | Changing state from vc_alloc to active.
6040 | network_0/router_4_4 | Beginning switch allocation for VC 0 at input 3 (front: 192022).
6040 | network_0/router_4_4 |   Requesting output 2.0 (non-spec, pri: 0).
6040 | network_0/router_4_4/sw_allocator | Input requests = [ 0 -> [ 1@0 ]  1 -> [ 0@0 ]  2 -> [ 3@0 ]  3 -> [ 2@0 ]  ], output requests = [ 0 -> [ 1@0 ]  1 -> [ 0@0 ]  2 -> [ 3@0 ]  3 -> [ 2@0 ]  ].
6040 | network_0/router_4_4/sw_allocator | Input grants = [ 0 -> 1  1 -> 0  2 -> 3  3 -> 2  ], output grants = [ 0 -> 1  1 -> 0  2 -> 3  3 -> 2  ].
6040 | network_0/router_4_4 | Assigning output 2.0 to VC 0 at input 3.0.
6040 | network_0/router_4_4 | Completed switch allocation for VC 0 at input 3 (front: 192022).
6040 | network_0/router_4_4 |   Scheduling switch connection from input 3.0 to output 2.0.
6040 | network_0/router_4_4 | Updating lookahead routing information for flit 192022.
6040 | network_0/router_5_4 | Adding VC range [0,1] at output port 4 for flit 192022 (input port 3, destination 44).
6041 | network_0/router_4_4 | Beginning crossbar traversal for flit 192022 from input 3.0 to output 2.0.
6041 | network_0/router_4_4 | Completed crossbar traversal for flit 192022 from input 3.0 to output 2.0.
6041 | network_0/router_4_4 | Buffering flit 192022 at output 2.
6041 | network_0/router_4_4 | Sending flit 192022 to channel at output 2.
6042 | network_0/network_0_fchan_146 | Beginning channel traversal for flit 192022 with delay 1.
6042 | network_0/network_0_fchan_146 | Completed channel traversal for flit 192022.
6043 | network_0/router_5_4 | Received flit 192022 from channel at input 3.
6043 | network_0/router_5_4 | Adding flit 192022 to VC 0 at input 3 (state: idle, empty).
6043 | network_0/router_5_4 | Using precomputed lookahead routing information for VC 0 at input 3 (front: 192022).
6043 | network_0/router_5_4/buf_3/vc_0 | Changing state from idle to vc_alloc.
6043 | network_0/router_5_4 | Beginning VC allocation for VC 0 at input 3 (front: 192022).
6043 | network_0/router_5_4 |   Requesting VC 0 at output 4 (in_pri: 0, out_pri: 0).
6043 | network_0/router_5_4 |   Requesting VC 1 at output 4 (in_pri: 0, out_pri: 0).
6043 | network_0/router_5_4/vc_allocator | Input requests = [ 0 -> [ 2@0 3@0 ]  2 -> [ 0@0 1@0 ]  4 -> [ 6@0 7@0 ]  6 -> [ 8@0 9@0 ]  8 -> [ 6@0 7@0 ]  ], output requests = [ 0 -> [ 2@0 ]  1 -> [ 2@0 ]  2 -> [ 0@0 ]  3 -> [ 0@0 ]  6 -> [ 4@0 8@0 ]  7 -> [ 4@0 8@0 ]  8 -> [ 6@0 ]  9 -> [ 6@0 ]  ].
6043 | network_0/router_5_4/vc_allocator | Input grants = [ 0 -> 2  2 -> 1  6 -> 9  8 -> 6  ], output grants = [ 1 -> 2  2 -> 0  6 -> 8  9 -> 6  ].
6043 | network_0/router_5_4 | Assigning VC 1 at output 4 to VC 0 at input 3.
6043 | network_0/router_5_4 | Completed VC allocation for VC 0 at input 3 (front: 192022).
6043 | network_0/router_5_4 |   Acquiring assigned VC 1 at output 4.
6043 | network_0/router_5_4/buf_3/vc_0 | Changing state from vc_alloc to active.
6043 | network_0/router_5_4 | Beginning switch allocation for VC 0 at input 3 (front: 192022).
6043 | network_0/router_5_4 |   Requesting output 4.0 (non-spec, pri: 0).
6043 | network_0/router_5_4/sw_allocator | Input requests = [ 0 -> [ 1@0 ]  1 -> [ 0@0 ]  3 -> [ 4@0 ]  4 -> [ 3@0 ]  ], output requests = [ 0 -> [ 1@0 ]  1 -> [ 0@0 ]  3 -> [ 4@0 ]  4 -> [ 3@0 ]  ].
6043 | network_0/router_5_4/sw_allocator | Input grants = [ 0 -> 1  1 -> 0  3 -> 4  4 -> 3  ], output grants = [ 0 -> 1  1 -> 0  3 -> 4  4 -> 3  ].
6043 | network_0/router_5_4 | Assigning output 4.0 to VC 0 at input 3.0.
6043 | network_0/router_5_4 | Completed switch allocation for VC 0 at input 3 (front: 192022).
6043 | network_0/router_5_4 |   Scheduling switch connection from input 3.0 to output 4.0.
6044 | network_0/router_5_4 | Beginning crossbar traversal for flit 192022 from input 3.0 to output 4.0.
6044 | network_0/router_5_4 | Completed crossbar traversal for flit 192022 from input 3.0 to output 4.0.
6044 | network_0/router_5_4 | Buffering flit 192022 at output 4.
6044 | network_0/router_5_4 | Sending flit 192022 to channel at output 4.
6045 | network_0/network_0_fchan_egress44 | Beginning channel traversal for flit 192022 with delay 1.
6045 | network_0/network_0_fchan_egress44 | Completed channel traversal for flit 192022.
6046 | node44 | Ejecting flit 192022 (packet 192022) from VC 1.
6046 | node44 | Injecting credit for VC 1 into subnet 0.
6046 | node44 | Retiring flit 192022 (packet 192022, src = 12, dest = 44, hops = 5, flat = 47).
6046 | node44 | Retiring packet 192022 (plat = 47, nlat = 47, frag = 0, src = 12, dest = 44).
Requeued flit 190324
Requeued flit 193551
Requeued flit 193557
Requeued flit 190750
Requeued flit 192142
Requeued flit 188483
Requeued flit 194760
Requeued flit 194194
Requeued flit 194317
Requeued flit 188626
Requeued flit 196059
Requeued flit 194348
Requeued flit 194256
Requeued flit 197303
Requeued flit 195795
Requeued flit 195424
Requeued flit 192383
Requeued flit 196638
Requeued flit 200006
Requeued flit 195310
Requeued flit 197896
Requeued flit 196824
Requeued flit 199342
Requeued flit 199638
Requeued flit 197525
Requeued flit 201175
Requeued flit 198293
Requeued flit 199671
Requeued flit 199418
Requeued flit 200372
Requeued flit 200859
Requeued flit 198933
Requeued flit 203759
Requeued flit 203408
Requeued flit 204531
Requeued flit 201458
Requeued flit 205113
Requeued flit 204717
Requeued flit 206827
Requeued flit 206969
Requeued flit 203458
Requeued flit 206213
Requeued flit 204387
Requeued flit 209193
Requeued flit 206006
Requeued flit 207650
Requeued flit 202498
Requeued flit 208424
Requeued flit 209605
Requeued flit 209952
Requeued flit 204594
Requeued flit 205892
Requeued flit 210926
Requeued flit 209801
Requeued flit 212736
Requeued flit 212968
Requeued flit 211375
Requeued flit 213213
Requeued flit 211060
Requeued flit 213100
Requeued flit 211558
Requeued flit 210767
Requeued flit 214482
Requeued flit 214035
Requeued flit 215383
Requeued flit 212465
Requeued flit 212369
Requeued flit 211873
Requeued flit 214550
Requeued flit 211256
Requeued flit 216018
Requeued flit 217191
Requeued flit 214799
Requeued flit 219076
Requeued flit 216522
Requeued flit 217455
Requeued flit 219726
Requeued flit 219863
Requeued flit 220180
Requeued flit 220721
Requeued flit 218516
Requeued flit 216632
Requeued flit 220930
Requeued flit 221802
Requeued flit 221734
Requeued flit 217474
Requeued flit 221341
Requeued flit 223496
Requeued flit 221585
Requeued flit 223770
Requeued flit 223634
Requeued flit 220509
Requeued flit 222964
Requeued flit 224900
Requeued flit 223503
Requeued flit 223656
Requeued flit 224135
Requeued flit 224614
Requeued flit 227871
Requeued flit 226877
Requeued flit 229061
Requeued flit 228651
Requeued flit 225994
Requeued flit 228141
Requeued flit 225477
Requeued flit 231430
Requeued flit 229714
Requeued flit 232199
Requeued flit 230622
Requeued flit 233006
Requeued flit 231121
Requeued flit 226584
Requeued flit 229779
Requeued flit 231719
Requeued flit 231011
Requeued flit 228854
Requeued flit 233126
Requeued flit 234172
Requeued flit 231622
Requeued flit 236520
Requeued flit 236606
Requeued flit 235627
Requeued flit 238060
Requeued flit 239010
Requeued flit 236576
Requeued flit 238124
Requeued flit 239710
Requeued flit 238744
Requeued flit 240494
Requeued flit 237324
Requeued flit 240109
Requeued flit 240175
Requeued flit 241871
Requeued flit 241797
Requeued flit 241203
Requeued flit 243377
Requeued flit 243260
Requeued flit 244687
Requeued flit 243715
Requeued flit 242197
Requeued flit 243465
Requeued flit 241054
Requeued flit 244504
Requeued flit 246108
Requeued flit 246705
Requeued flit 246927
Requeued flit 246105
Requeued flit 246135
Requeued flit 246827
Requeued flit 244246
Requeued flit 248785
Requeued flit 244889
Requeued flit 245544
Requeued flit 250082
Requeued flit 248176
Requeued flit 244014
Requeued flit 249662
Requeued flit 247231
Requeued flit 244604
Requeued flit 248305
Requeued flit 247017
Requeued flit 250579
Requeued flit 250515
Requeued flit 252298
Requeued flit 252119
Requeued flit 251845
Requeued flit 250040
Requeued flit 251043
Requeued flit 251869
Requeued flit 253333
Requeued flit 249595
Requeued flit 250652
Requeued flit 249926
Requeued flit 251545
Requeued flit 254110
Requeued flit 253826
Requeued flit 255700
Requeued flit 254260
Requeued flit 256461
Requeued flit 252030
Requeued flit 258293
Requeued flit 257032
Requeued flit 256270
Requeued flit 253780
Requeued flit 260082
Requeued flit 257105
Requeued flit 258557
Requeued flit 255760
Requeued flit 262139
Requeued flit 263606
Requeued flit 263945
Requeued flit 264400
Requeued flit 264228
Requeued flit 261103
Requeued flit 265992
Requeued flit 260505
Requeued flit 266544
Requeued flit 264984
Requeued flit 264511
Requeued flit 264476
Requeued flit 267883
Requeued flit 262141
Requeued flit 268857
Requeued flit 265627
Requeued flit 269874
Requeued flit 268120
Requeued flit 267090
Requeued flit 270565
Requeued flit 265435
Requeued flit 268263
Requeued flit 267066
Requeued flit 267179
Requeued flit 266193
Requeued flit 267889
Requeued flit 272954
Requeued flit 271529
Requeued flit 274075
Requeued flit 272884
Requeued flit 272563
Requeued flit 271372
Requeued flit 274515
Requeued flit 273275
Requeued flit 271964
Requeued flit 275477
Requeued flit 277143
Requeued flit 273155
Requeued flit 274599
Requeued flit 272586
Requeued flit 276237
Requeued flit 275788
Requeued flit 274598
Requeued flit 277650
Requeued flit 272628
Requeued flit 275743
Requeued flit 272993
Requeued flit 277477
Requeued flit 279177
Requeued flit 279987
Requeued flit 279820
Requeued flit 280779
Requeued flit 274930
Requeued flit 278661
Requeued flit 277819
Requeued flit 279461
Requeued flit 277169
Requeued flit 282086
Requeued flit 279959
Requeued flit 282288
Requeued flit 281884
Requeued flit 282280
Requeued flit 278312
Requeued flit 281159
Requeued flit 281714
Requeued flit 283028
Requeued flit 281010
Requeued flit 280386
Requeued flit 278101
Requeued flit 281209
Requeued flit 284684
Requeued flit 285437
Requeued flit 283332
Requeued flit 285979
Requeued flit 281254
Requeued flit 285261
Requeued flit 284016
Requeued flit 286781
Requeued flit 287816
Requeued flit 287301
Requeued flit 286558
Requeued flit 286049
Requeued flit 285676
Requeued flit 289139
Requeued flit 288934
Requeued flit 288869
Requeued flit 290889
Requeued flit 290200
Requeued flit 290869
Requeued flit 285629
Requeued flit 291345
Requeued flit 286283
Requeued flit 290319
Requeued flit 290530
Requeued flit 289285
Requeued flit 292410
Requeued flit 293659
Requeued flit 293565
Requeued flit 293914
Requeued flit 289711
Requeued flit 292346
Requeued flit 287159
Requeued flit 295591
Requeued flit 294112
Requeued flit 293834
Requeued flit 295634
Requeued flit 293996
Requeued flit 298253
Requeued flit 297825
Requeued flit 297701
Requeued flit 299486
Requeued flit 298275
Requeued flit 299415
Requeued flit 297074
Requeued flit 300545
Requeued flit 300723
Requeued flit 301004
Requeued flit 302509
Requeued flit 301295
Requeued flit 303612
Requeued flit 304115
Requeued flit 303077
Requeued flit 301297
Requeued flit 302858
Requeued flit 307802
Requeued flit 307350
Requeued flit 308994
Requeued flit 308111
Requeued flit 308977
Requeued flit 306876
Requeued flit 309070
Requeued flit 308127
Requeued flit 312196
Requeued flit 312006
Requeued flit 311723
Requeued flit 312581
Requeued flit 311367
Requeued flit 314213
Requeued flit 312031
Requeued flit 312438
Requeued flit 313024
Requeued flit 310761
Requeued flit 314050
Requeued flit 316812
Requeued flit 318015
Requeued flit 315139
Requeued flit 318392
Requeued flit 317819
Requeued flit 315668
Requeued flit 316153
Requeued flit 319236
Requeued flit 319145
Class 0:
Packet latency average = 68.036
	minimum = 5
	maximum = 480
Network latency average = 68.036
	minimum = 5
	maximum = 480
Slowest packet = 255760
Flit latency average = 68.036
	minimum = 5
	maximum = 480
Slowest flit = 255760
Fragmentation average = 0
	minimum = 0
	maximum = 0
Injected packet rate average = 0.499741
	minimum = 0.4869 (at node 11)
	maximum = 0.5122 (at node 24)
Accepted packet rate average = 0.495289
	minimum = 0.4797 (at node 21)
	maximum = 0.5098 (at node 28)
Injected flit rate average = 0.499741
	minimum = 0.4869 (at node 11)
	maximum = 0.5122 (at node 24)
Accepted flit rate average= 0.495289
	minimum = 0.4797 (at node 21)
	maximum = 0.5098 (at node 28)
Injected packet length average = 1
Accepted packet length average = 1
Total in-flight flits = 2849 (0 measured)
latency change    = 1
throughput change = 1
Requeued flit 313483
Requeued flit 316134
Requeued flit 319322
Requeued flit 320398
Requeued flit 320152
Requeued flit 320975
Requeued flit 318421
Requeued flit 319941
Requeued flit 323123
Requeued flit 323574
Requeued flit 323477
Requeued flit 324043
Requeued flit 321028
Requeued flit 321145
Requeued flit 322942
Requeued flit 324146
Requeued flit 322101
Requeued flit 319023
Requeued flit 325999
Requeued flit 328571
Requeued flit 323218
Requeued flit 327984
Requeued flit 328634
Requeued flit 325050
Requeued flit 326792
Requeued flit 323841
Requeued flit 324110
Requeued flit 327426
Requeued flit 325347
Requeued flit 330346
Requeued flit 330438
Requeued flit 328080
Requeued flit 330583
Requeued flit 331363
Requeued flit 331445
Requeued flit 325023
Requeued flit 331724
Requeued flit 332415
Requeued flit 334260
Requeued flit 332609
Requeued flit 331894
Requeued flit 334308
Requeued flit 335434
Requeued flit 331396
Requeued flit 333623
Requeued flit 331793
Requeued flit 334632
Requeued flit 336077
Requeued flit 333013
Requeued flit 338997
Requeued flit 334069
Requeued flit 338975
Requeued flit 338714
Requeued flit 337802
Requeued flit 332635
Requeued flit 339992
Requeued flit 341051
Requeued flit 340415
Requeued flit 338613
Requeued flit 337024
Requeued flit 340032
Requeued flit 342188
Requeued flit 342508
Requeued flit 339477
Requeued flit 341300
Requeued flit 343476
Requeued flit 340701
Requeued flit 338370
Requeued flit 338970
Requeued flit 338939
Requeued flit 343814
Requeued flit 343426
Requeued flit 344114
Requeued flit 342124
Requeued flit 345567
Requeued flit 343275
Requeued flit 337948
Requeued flit 344827
Requeued flit 345816
Requeued flit 347206
Requeued flit 347570
Requeued flit 346154
Requeued flit 345278
Requeued flit 343993
Requeued flit 341354
Requeued flit 349613
Requeued flit 346756
Requeued flit 350602
Requeued flit 343472
Requeued flit 350071
Requeued flit 352599
Requeued flit 353538
Requeued flit 353307
Requeued flit 348185
Requeued flit 342975
Requeued flit 350922
Requeued flit 354058
Requeued flit 356440
Requeued flit 348938
Requeued flit 349914
Requeued flit 355535
Requeued flit 352515
Requeued flit 358230
Requeued flit 357352
Requeued flit 359435
Requeued flit 357751
Requeued flit 360610
Requeued flit 360300
Requeued flit 355370
Requeued flit 358566
Requeued flit 362164
Requeued flit 356434
Requeued flit 355757
Requeued flit 360933
Requeued flit 363310
Requeued flit 364565
Requeued flit 361629
Requeued flit 358088
Requeued flit 357539
Requeued flit 365465
Requeued flit 362916
Requeued flit 363776
Requeued flit 364069
Requeued flit 370359
Requeued flit 368109
Requeued flit 368664
Requeued flit 369351
Requeued flit 372306
Requeued flit 373509
Requeued flit 368162
Requeued flit 374527
Requeued flit 374846
Requeued flit 370289
Requeued flit 375690
Requeued flit 376373
Requeued flit 377606
Requeued flit 375069
Requeued flit 379312
Requeued flit 376137
Requeued flit 375405
Requeued flit 378821
Requeued flit 380020
Requeued flit 376066
Requeued flit 380368
Requeued flit 376024
Requeued flit 379590
Requeued flit 378960
Requeued flit 381750
Requeued flit 382071
Requeued flit 382695
Requeued flit 382993
Requeued flit 383332
Requeued flit 383731
Requeued flit 382386
Requeued flit 378158
Requeued flit 386233
Requeued flit 382906
Requeued flit 387129
Requeued flit 387019
Requeued flit 377173
Requeued flit 387178
Requeued flit 380922
Requeued flit 388909
Requeued flit 389576
Requeued flit 389165
Requeued flit 389484
Requeued flit 389943
Requeued flit 391457
Requeued flit 389949
Requeued flit 391863
Requeued flit 394145
Requeued flit 392803
Requeued flit 386524
Requeued flit 394257
Requeued flit 394202
Requeued flit 394832
Requeued flit 388526
Requeued flit 395647
Requeued flit 394049
Requeued flit 395705
Requeued flit 392590
Requeued flit 395413
Requeued flit 395418
Requeued flit 396808
Requeued flit 396872
Requeued flit 398356
Requeued flit 396955
Requeued flit 393871
Requeued flit 397541
Requeued flit 399415
Requeued flit 400691
Requeued flit 392312
Requeued flit 396597
Requeued flit 399047
Requeued flit 399435
Requeued flit 403171
Requeued flit 398855
Requeued flit 404261
Requeued flit 402947
Requeued flit 402686
Requeued flit 402594
Requeued flit 403624
Requeued flit 404658
Requeued flit 405989
Requeued flit 405106
Requeued flit 404945
Requeued flit 406188
Requeued flit 406542
Requeued flit 401953
Requeued flit 407311
Requeued flit 404609
Requeued flit 404229
Requeued flit 407064
Requeued flit 407931
Requeued flit 405184
Requeued flit 407916
Requeued flit 408586
Requeued flit 401404
Requeued flit 406854
Requeued flit 410625
Requeued flit 409557
Requeued flit 409416
Requeued flit 411272
Requeued flit 409449
Requeued flit 409455
Requeued flit 410054
Requeued flit 408109
Requeued flit 403772
Requeued flit 406122
Requeued flit 407730
Requeued flit 409637
Requeued flit 413970
Requeued flit 410364
Requeued flit 414262
Requeued flit 409986
Requeued flit 414769
Requeued flit 415114
Requeued flit 415659
Requeued flit 417589
Requeued flit 416050
Requeued flit 415971
Requeued flit 414603
Requeued flit 418736
Requeued flit 421473
Requeued flit 420143
Requeued flit 422336
Requeued flit 414656
Requeued flit 422746
Requeued flit 423712
Requeued flit 419417
Requeued flit 416940
Requeued flit 419493
Requeued flit 425038
Requeued flit 425447
Requeued flit 423245
Requeued flit 418936
Requeued flit 427584
Requeued flit 427643
Requeued flit 422156
Requeued flit 424011
Requeued flit 426827
Requeued flit 425443
Requeued flit 419632
Requeued flit 428380
Requeued flit 428745
Requeued flit 428372
Requeued flit 427795
Requeued flit 428634
Requeued flit 427955
Requeued flit 430129
Requeued flit 430739
Requeued flit 431497
Requeued flit 424229
Requeued flit 424681
Requeued flit 424298
Requeued flit 431964
Requeued flit 432977
Requeued flit 431854
Requeued flit 434992
Requeued flit 430127
Requeued flit 435414
Requeued flit 427727
Requeued flit 431832
Requeued flit 435655
Requeued flit 434753
Requeued flit 435091
Requeued flit 436154
Requeued flit 427274
Requeued flit 437606
Requeued flit 436374
Requeued flit 438243
Requeued flit 434410
Requeued flit 437495
Requeued flit 439031
Requeued flit 440948
Requeued flit 437759
Requeued flit 439072
Requeued flit 433865
Requeued flit 439640
Requeued flit 437494
Requeued flit 438391
Requeued flit 442681
Requeued flit 439400
Requeued flit 436189
Requeued flit 442935
Requeued flit 443134
Requeued flit 434136
Requeued flit 433054
Requeued flit 444873
Requeued flit 444590
Requeued flit 444740
Requeued flit 445722
Requeued flit 447046
Requeued flit 448050
Requeued flit 442408
Requeued flit 447781
Requeued flit 448311
Requeued flit 447516
Requeued flit 448830
Requeued flit 449402
Requeued flit 447139
Requeued flit 448246
Requeued flit 438844
Requeued flit 450901
Requeued flit 453090
Requeued flit 451614
Requeued flit 450074
Requeued flit 454889
Requeued flit 452037
Requeued flit 456123
Requeued flit 457269
Requeued flit 454727
Requeued flit 456292
Requeued flit 452823
Requeued flit 458756
Requeued flit 458979
Requeued flit 451456
Requeued flit 455592
Requeued flit 452614
Requeued flit 461067
Requeued flit 461028
Requeued flit 461382
Requeued flit 460941
Requeued flit 450935
Requeued flit 457228
Requeued flit 458979
Requeued flit 460138
Requeued flit 458373
Requeued flit 461774
Requeued flit 461592
Requeued flit 463485
Requeued flit 458552
Requeued flit 465282
Requeued flit 460590
Requeued flit 464750
Requeued flit 459860
Requeued flit 454379
Requeued flit 462087
Requeued flit 461701
Requeued flit 466698
Requeued flit 459850
Requeued flit 459956
Requeued flit 466090
Requeued flit 467605
Requeued flit 463010
Requeued flit 466020
Requeued flit 466068
Requeued flit 465964
Requeued flit 462226
Requeued flit 467342
Requeued flit 465645
Requeued flit 471418
Requeued flit 471782
Requeued flit 472112
Requeued flit 472365
Requeued flit 471152
Requeued flit 468468
Requeued flit 473841
Requeued flit 466676
Requeued flit 474664
Requeued flit 468914
Requeued flit 474011
Requeued flit 474235
Requeued flit 474140
Requeued flit 472999
Requeued flit 475106
Requeued flit 472730
Requeued flit 475980
Requeued flit 477102
Requeued flit 476791
Requeued flit 478197
Requeued flit 475232
Requeued flit 478976
Requeued flit 479155
Requeued flit 476732
Requeued flit 479759
Requeued flit 479927
Requeued flit 480841
Requeued flit 482241
Requeued flit 483338
Requeued flit 483496
Requeued flit 479391
Requeued flit 479208
Requeued flit 477860
Requeued flit 481494
Requeued flit 484024
Requeued flit 485544
Requeued flit 484030
Requeued flit 489254
Requeued flit 489646
Requeued flit 487470
Requeued flit 489820
Requeued flit 484845
Requeued flit 490456
Requeued flit 488336
Requeued flit 490608
Requeued flit 489712
Requeued flit 485612
Requeued flit 476700
Requeued flit 492587
Requeued flit 480507
Requeued flit 487807
Requeued flit 492872
Requeued flit 493158
Requeued flit 493099
Requeued flit 495230
Requeued flit 493631
Requeued flit 489422
Requeued flit 490744
Requeued flit 489322
Requeued flit 492275
Requeued flit 486607
Requeued flit 490834
Requeued flit 497434
Requeued flit 497999
Requeued flit 497404
Requeued flit 497985
Requeued flit 499166
Requeued flit 494540
Requeued flit 492133
Requeued flit 499244
Requeued flit 501303
Requeued flit 494530
Requeued flit 502045
Requeued flit 499721
Requeued flit 500031
Requeued flit 502372
Requeued flit 505321
Requeued flit 502114
Requeued flit 506339
Requeued flit 503237
Requeued flit 502559
Requeued flit 502889
Requeued flit 498776
Requeued flit 506439
Requeued flit 502146
Requeued flit 507497
Requeued flit 509059
Requeued flit 500172
Requeued flit 510077
Requeued flit 510710
Requeued flit 509097
Requeued flit 510080
Requeued flit 512050
Requeued flit 508672
Requeued flit 509474
Requeued flit 511688
Requeued flit 512899
Requeued flit 508510
Requeued flit 514296
Requeued flit 514363
Requeued flit 508943
Requeued flit 514661
Requeued flit 515080
Requeued flit 515211
Requeued flit 515770
Requeued flit 515850
Requeued flit 516261
Requeued flit 512824
Requeued flit 516521
Requeued flit 517764
Requeued flit 517730
Requeued flit 517696
Requeued flit 519282
Requeued flit 512287
Requeued flit 520437
Requeued flit 518218
Requeued flit 515488
Requeued flit 520846
Requeued flit 520047
Requeued flit 519085
Requeued flit 523064
Requeued flit 525220
Requeued flit 525263
Requeued flit 518653
Requeued flit 521666
Requeued flit 519988
Requeued flit 525411
Requeued flit 528718
Requeued flit 523484
Requeued flit 527980
Requeued flit 522822
Requeued flit 525797
Requeued flit 530814
Requeued flit 531251
Requeued flit 525172
Requeued flit 527428
Requeued flit 530040
Requeued flit 530658
Requeued flit 526170
Requeued flit 521797
Requeued flit 532501
Requeued flit 532553
Requeued flit 527147
Requeued flit 530167
Requeued flit 528936
Requeued flit 532099
Requeued flit 525607
Requeued flit 536127
Requeued flit 529692
Requeued flit 533340
Requeued flit 534905
Requeued flit 532741
Requeued flit 530735
Requeued flit 535669
Requeued flit 524385
Requeued flit 536869
Requeued flit 535379
Requeued flit 539164
Requeued flit 540394
Requeued flit 540154
Requeued flit 540925
Requeued flit 541757
Requeued flit 542248
Requeued flit 538650
Requeued flit 542905
Requeued flit 537380
Requeued flit 540912
Requeued flit 543511
Requeued flit 543897
Requeued flit 542981
Requeued flit 541915
Requeued flit 540071
Requeued flit 542089
Requeued flit 538082
Requeued flit 545426
Requeued flit 543542
Requeued flit 538696
Requeued flit 541885
Requeued flit 544230
Requeued flit 546441
Requeued flit 541936
Requeued flit 547292
Requeued flit 546473
Requeued flit 542629
Requeued flit 547042
Requeued flit 547417
Requeued flit 540577
Requeued flit 544578
Requeued flit 550094
Requeued flit 544846
Requeued flit 545794
Requeued flit 552148
Requeued flit 552811
Requeued flit 552220
Requeued flit 547974
Requeued flit 553124
Requeued flit 552731
Requeued flit 553539
Requeued flit 552267
Requeued flit 555051
Requeued flit 549746
Requeued flit 551209
Requeued flit 551593
Requeued flit 552635
Requeued flit 543095
Requeued flit 548702
Requeued flit 557666
Requeued flit 556850
Requeued flit 553954
Requeued flit 555099
Requeued flit 554427
Requeued flit 558454
Requeued flit 557055
Requeued flit 549509
Requeued flit 557296
Requeued flit 556453
Requeued flit 555309
Requeued flit 560793
Requeued flit 561708
Requeued flit 555800
Requeued flit 561994
Requeued flit 555789
Requeued flit 556445
Requeued flit 563805
Requeued flit 564001
Requeued flit 561118
Requeued flit 562757
Requeued flit 564733
Requeued flit 553604
Requeued flit 561560
Requeued flit 564323
Requeued flit 567219
Requeued flit 567984
Requeued flit 557323
Requeued flit 561526
Requeued flit 567044
Requeued flit 561928
Requeued flit 567256
Requeued flit 561185
Requeued flit 569465
Requeued flit 558757
Requeued flit 570263
Requeued flit 569480
Requeued flit 571261
Requeued flit 568335
Requeued flit 569943
Requeued flit 573708
Requeued flit 570756
Requeued flit 575030
Requeued flit 571567
Requeued flit 575032
Requeued flit 570046
Requeued flit 565341
Requeued flit 567236
Requeued flit 570618
Requeued flit 568448
Requeued flit 572643
Requeued flit 576420
Requeued flit 569655
Requeued flit 576404
Requeued flit 578605
Requeued flit 578835
Requeued flit 571914
Requeued flit 580962
Requeued flit 581525
Requeued flit 581489
Requeued flit 581886
Requeued flit 580523
Requeued flit 583399
Requeued flit 579998
Requeued flit 572788
Requeued flit 579374
Requeued flit 584789
Requeued flit 585157
Requeued flit 583401
Requeued flit 580514
Requeued flit 581606
Requeued flit 578952
Requeued flit 585275
Requeued flit 585521
Requeued flit 585550
Requeued flit 580095
Requeued flit 591137
Requeued flit 588987
Requeued flit 590443
Requeued flit 591947
Requeued flit 590794
Requeued flit 586834
Requeued flit 589117
Requeued flit 588609
Requeued flit 593528
Requeued flit 590297
Requeued flit 594684
Requeued flit 586805
Requeued flit 585561
Requeued flit 594018
Requeued flit 591786
Requeued flit 586337
Requeued flit 596255
Requeued flit 592013
Requeued flit 591700
Requeued flit 598816
Requeued flit 599361
Requeued flit 594563
Requeued flit 588811
Requeued flit 595794
Requeued flit 601041
Requeued flit 591031
Requeued flit 596378
Requeued flit 597830
Requeued flit 599469
Requeued flit 593065
Requeued flit 602301
Requeued flit 598559
Requeued flit 602673
Requeued flit 598533
Requeued flit 603211
Requeued flit 600472
Requeued flit 604355
Requeued flit 595650
Requeued flit 604778
Requeued flit 605882
Requeued flit 606050
Requeued flit 604877
Requeued flit 608150
Requeued flit 608376
Requeued flit 602288
Requeued flit 608757
Requeued flit 600238
Requeued flit 609923
Requeued flit 602242
Requeued flit 610450
Requeued flit 607364
Requeued flit 610615
Requeued flit 611965
Requeued flit 611160
Requeued flit 611778
Requeued flit 613161
Requeued flit 614041
Requeued flit 613928
Requeued flit 604466
Requeued flit 614402
Requeued flit 610458
Requeued flit 615450
Requeued flit 614520
Requeued flit 615828
Requeued flit 615429
Requeued flit 612307
Requeued flit 617296
Requeued flit 613388
Requeued flit 617586
Requeued flit 616100
Requeued flit 617680
Requeued flit 617889
Requeued flit 614009
Requeued flit 614241
Requeued flit 617681
Requeued flit 619209
Requeued flit 619840
Requeued flit 617728
Requeued flit 611655
Requeued flit 622675
Requeued flit 623427
Requeued flit 618237
Requeued flit 619828
Requeued flit 615129
Requeued flit 614349
Requeued flit 624680
Requeued flit 625091
Requeued flit 622600
Requeued flit 618950
Requeued flit 627591
Requeued flit 626170
Requeued flit 627650
Requeued flit 627832
Requeued flit 628351
Requeued flit 629383
Requeued flit 624109
Requeued flit 627885
Requeued flit 629996
Requeued flit 628932
Requeued flit 625761
Requeued flit 623820
Requeued flit 629032
Requeued flit 622012
Requeued flit 629270
Requeued flit 631921
Requeued flit 632748
Requeued flit 628563
Requeued flit 625908
Requeued flit 634127
Requeued flit 634092
Requeued flit 626740
Requeued flit 630361
Requeued flit 636785
Requeued flit 631035
Requeued flit 632148
Class 0:
Packet latency average = 89.8643
	minimum = 5
	maximum = 655
Network latency average = 89.8643
	minimum = 5
	maximum = 655
Slowest packet = 476700
Flit latency average = 89.8643
	minimum = 5
	maximum = 655
Slowest flit = 476700
Fragmentation average = 0
	minimum = 0
	maximum = 0
Injected packet rate average = 0.49963
	minimum = 0.49155 (at node 50)
	maximum = 0.50625 (at node 28)
Accepted packet rate average = 0.496389
	minimum = 0.48725 (at node 21)
	maximum = 0.50725 (at node 39)
Injected flit rate average = 0.49963
	minimum = 0.49155 (at node 50)
	maximum = 0.50625 (at node 28)
Accepted flit rate average= 0.496389
	minimum = 0.48725 (at node 21)
	maximum = 0.50725 (at node 39)
Injected packet length average = 1
Accepted packet length average = 1
Total in-flight flits = 4149 (0 measured)
latency change    = 0.242904
throughput change = 0.002216
Requeued flit 640402
Requeued flit 634482
Requeued flit 640583
Requeued flit 641878
Requeued flit 641668
Requeued flit 641808
Requeued flit 635728
Requeued flit 640277
Requeued flit 641410
Requeued flit 643221
Requeued flit 638363
Requeued flit 640399
Requeued flit 640591
Requeued flit 645520
Requeued flit 645885
Requeued flit 645712
Requeued flit 639165
Requeued flit 635427
Requeued flit 647205
Requeued flit 647110
Requeued flit 645627
Requeued flit 637624
Requeued flit 645518
Requeued flit 649438
Requeued flit 649543
Requeued flit 641894
Requeued flit 649962
Requeued flit 638925
Requeued flit 649063
Requeued flit 649687
Requeued flit 643702
Requeued flit 648975
Requeued flit 650914
Requeued flit 645530
Requeued flit 651735
Requeued flit 652810
Requeued flit 646840
Requeued flit 648237
Requeued flit 653475
Requeued flit 655025
Requeued flit 654889
Requeued flit 655653
Requeued flit 655762
Requeued flit 652834
Requeued flit 656266
Requeued flit 650806
Requeued flit 655303
Requeued flit 651876
Requeued flit 657392
Requeued flit 659505
Requeued flit 658323
Requeued flit 656556
Requeued flit 643617
Requeued flit 654013
Requeued flit 651583
Requeued flit 654306
Requeued flit 662955
Requeued flit 663300
Requeued flit 655753
Requeued flit 662004
Requeued flit 654850
Requeued flit 664979
Requeued flit 666402
Requeued flit 666854
Requeued flit 667040
Requeued flit 667314
Requeued flit 663297
Requeued flit 668120
Requeued flit 668419
Requeued flit 668616
Requeued flit 666113
Requeued flit 660251
Requeued flit 669112
Requeued flit 668001
Requeued flit 659409
Requeued flit 664085
Requeued flit 668763
Requeued flit 664490
Requeued flit 669648
Requeued flit 671194
Requeued flit 672933
Requeued flit 672624
Requeued flit 668179
Requeued flit 659670
Requeued flit 672800
Requeued flit 674392
Requeued flit 661526
Requeued flit 672178
Requeued flit 676085
Requeued flit 674263
Requeued flit 677386
Requeued flit 664987
Requeued flit 677134
Requeued flit 677993
Requeued flit 675752
Requeued flit 677419
Requeued flit 675030
Requeued flit 680212
Requeued flit 672023
Requeued flit 675326
Requeued flit 676198
Requeued flit 680690
Requeued flit 676907
Requeued flit 680337
Requeued flit 680909
Requeued flit 679075
Requeued flit 678911
Requeued flit 680913
Requeued flit 682437
Requeued flit 675158
Requeued flit 683511
Requeued flit 675459
Requeued flit 678738
Requeued flit 684202
Requeued flit 679467
Requeued flit 677772
Requeued flit 683034
Requeued flit 686081
Requeued flit 681187
Requeued flit 684720
Requeued flit 671035
Requeued flit 686022
Requeued flit 687467
Requeued flit 685635
Requeued flit 676513
Requeued flit 678823
Requeued flit 688370
Requeued flit 681173
Requeued flit 688217
Requeued flit 681429
Requeued flit 689464
Requeued flit 689921
Requeued flit 686699
Requeued flit 686990
Requeued flit 690149
Requeued flit 680730
Requeued flit 686565
Requeued flit 690246
Requeued flit 692291
Requeued flit 692394
Requeued flit 690399
Requeued flit 684185
Requeued flit 694492
Requeued flit 688434
Requeued flit 692023
Requeued flit 683456
Requeued flit 690048
Requeued flit 695774
Requeued flit 690826
Requeued flit 693273
Requeued flit 697051
Requeued flit 697237
Requeued flit 697716
Requeued flit 691472
Requeued flit 684751
Requeued flit 698472
Requeued flit 697093
Requeued flit 686814
Requeued flit 698810
Requeued flit 691002
Requeued flit 697123
Requeued flit 691959
Requeued flit 699842
Requeued flit 699301
Requeued flit 696428
Requeued flit 692485
Requeued flit 701426
Requeued flit 702689
Requeued flit 694238
Requeued flit 698637
Requeued flit 703483
Requeued flit 703413
Requeued flit 703226
Requeued flit 703092
Requeued flit 703611
Requeued flit 697506
Requeued flit 697205
Requeued flit 705761
Requeued flit 704946
Requeued flit 699342
Requeued flit 695327
Requeued flit 698369
Requeued flit 706711
Requeued flit 706342
Requeued flit 699437
Requeued flit 704203
Requeued flit 695519
Requeued flit 705917
Requeued flit 709435
Requeued flit 703574
Requeued flit 707727
Requeued flit 703835
Requeued flit 710857
Requeued flit 711784
Requeued flit 711277
Requeued flit 704193
Requeued flit 712628
Requeued flit 712273
Requeued flit 713113
Requeued flit 710675
Requeued flit 704251
Requeued flit 713448
Requeued flit 712372
Requeued flit 712802
Requeued flit 705685
Requeued flit 716589
Requeued flit 709996
Requeued flit 714330
Requeued flit 717153
Requeued flit 716061
Requeued flit 714957
Requeued flit 711719
Requeued flit 718576
Requeued flit 712398
Requeued flit 715877
Requeued flit 713878
Requeued flit 719535
Requeued flit 719994
Requeued flit 719629
Requeued flit 722203
Requeued flit 719544
Requeued flit 722863
Requeued flit 723339
Requeued flit 720157
Requeued flit 721478
Requeued flit 724878
Requeued flit 724979
Requeued flit 724763
Requeued flit 719431
Requeued flit 720361
Requeued flit 720517
Requeued flit 725916
Requeued flit 723891
Requeued flit 725119
Requeued flit 718142
Requeued flit 719095
Requeued flit 725234
Requeued flit 721181
Requeued flit 727287
Requeued flit 724616
Requeued flit 726180
Requeued flit 726971
Requeued flit 728468
Requeued flit 720360
Requeued flit 722171
Requeued flit 728598
Requeued flit 723757
Requeued flit 713039
Requeued flit 730946
Requeued flit 730446
Requeued flit 731473
Requeued flit 728475
Requeued flit 726950
Requeued flit 730336
Requeued flit 734156
Requeued flit 734249
Requeued flit 731478
Requeued flit 733937
Requeued flit 734545
Requeued flit 733904
Requeued flit 734070
Requeued flit 728113
Requeued flit 736828
Requeued flit 734824
Requeued flit 734189
Requeued flit 722944
Requeued flit 735342
Requeued flit 733240
Requeued flit 736787
Requeued flit 739275
Requeued flit 733756
Requeued flit 722384
Requeued flit 734277
Requeued flit 738492
Requeued flit 730015
Requeued flit 735190
Requeued flit 740682
Requeued flit 740205
Requeued flit 742302
Requeued flit 736102
Requeued flit 737408
Requeued flit 738008
Requeued flit 743431
Requeued flit 744153
Requeued flit 739103
Requeued flit 745628
Requeued flit 740664
Requeued flit 747036
Requeued flit 745466
Requeued flit 748290
Requeued flit 740877
Requeued flit 749161
Requeued flit 746805
Requeued flit 748172
Requeued flit 748513
Requeued flit 747874
Requeued flit 744949
Requeued flit 742145
Requeued flit 749592
Requeued flit 747105
Requeued flit 749661
Requeued flit 752017
Requeued flit 745109
Requeued flit 752137
Requeued flit 753152
Requeued flit 742875
Requeued flit 751604
Requeued flit 750465
Requeued flit 752243
Requeued flit 755137
Requeued flit 750820
Requeued flit 755757
Requeued flit 753288
Requeued flit 741619
Requeued flit 754290
Requeued flit 757250
Requeued flit 756297
Requeued flit 755469
Requeued flit 757407
Requeued flit 759686
Requeued flit 760765
Requeued flit 758890
Requeued flit 760694
Requeued flit 759959
Requeued flit 759942
Requeued flit 761491
Requeued flit 760166
Requeued flit 762150
Requeued flit 760353
Requeued flit 760784
Requeued flit 765008
Requeued flit 765870
Requeued flit 765492
Requeued flit 764196
Requeued flit 762850
Requeued flit 762322
Requeued flit 760670
Requeued flit 762059
Requeued flit 763832
Requeued flit 767353
Requeued flit 767574
Requeued flit 763338
Requeued flit 769311
Requeued flit 766339
Requeued flit 767846
Requeued flit 769457
Requeued flit 766605
Requeued flit 767354
Requeued flit 766529
Requeued flit 767495
Requeued flit 762278
Requeued flit 772516
Requeued flit 766960
Requeued flit 771814
Requeued flit 772321
Requeued flit 773641
Requeued flit 774878
Requeued flit 775060
Requeued flit 775352
Requeued flit 770726
Requeued flit 767842
Requeued flit 775313
Requeued flit 774527
Requeued flit 776678
Requeued flit 773712
Requeued flit 773718
Requeued flit 776460
Requeued flit 773773
Requeued flit 777862
Requeued flit 773482
Requeued flit 779003
Requeued flit 774306
Requeued flit 782785
Requeued flit 778742
Requeued flit 776343
Requeued flit 784275
Requeued flit 784567
Requeued flit 778614
Requeued flit 784704
Requeued flit 785228
Requeued flit 781714
Requeued flit 785715
Requeued flit 784522
Requeued flit 785189
Requeued flit 784283
Requeued flit 786195
Requeued flit 790670
Requeued flit 790804
Requeued flit 782654
Requeued flit 787447
Requeued flit 791517
Requeued flit 787291
Requeued flit 792016
Requeued flit 792490
Requeued flit 791732
Requeued flit 790041
Requeued flit 793526
Requeued flit 784694
Requeued flit 790360
Requeued flit 791725
Requeued flit 788524
Requeued flit 790474
Requeued flit 790850
Requeued flit 791419
Requeued flit 791695
Requeued flit 796823
Requeued flit 792346
Requeued flit 792972
Requeued flit 798169
Requeued flit 796593
Requeued flit 799664
Requeued flit 796462
Requeued flit 793369
Requeued flit 800317
Requeued flit 794484
Requeued flit 792851
Requeued flit 801093
Requeued flit 793255
Requeued flit 797552
Requeued flit 803738
Requeued flit 804911
Requeued flit 800258
Requeued flit 799124
Requeued flit 799663
Requeued flit 799096
Requeued flit 806585
Requeued flit 792226
Requeued flit 806118
Requeued flit 806423
Requeued flit 792014
Requeued flit 808869
Requeued flit 802506
Requeued flit 804351
Requeued flit 809501
Requeued flit 803925
Requeued flit 807042
Requeued flit 810579
Requeued flit 810871
Requeued flit 809787
Requeued flit 810991
Requeued flit 808682
Requeued flit 812827
Requeued flit 806651
Requeued flit 800189
Requeued flit 813867
Requeued flit 808808
Requeued flit 814735
Requeued flit 814714
Requeued flit 815516
Requeued flit 816168
Requeued flit 816377
Requeued flit 816466
Requeued flit 808531
Requeued flit 817199
Requeued flit 806505
Requeued flit 803513
Requeued flit 810692
Requeued flit 818642
Requeued flit 816641
Requeued flit 811954
Requeued flit 816685
Requeued flit 814039
Requeued flit 814923
Requeued flit 817721
Requeued flit 819377
Requeued flit 815313
Requeued flit 821384
Requeued flit 821653
Requeued flit 821104
Requeued flit 820719
Requeued flit 813945
Requeued flit 822277
Requeued flit 815361
Requeued flit 818049
Requeued flit 816859
Requeued flit 820941
Requeued flit 821338
Requeued flit 815144
Requeued flit 825195
Requeued flit 825086
Requeued flit 826507
Requeued flit 825510
Requeued flit 825362
Requeued flit 827808
Requeued flit 820687
Requeued flit 821671
Requeued flit 821526
Requeued flit 822942
Requeued flit 827134
Requeued flit 829059
Requeued flit 823376
Requeued flit 830559
Requeued flit 829544
Requeued flit 828364
Requeued flit 832484
Requeued flit 833959
Requeued flit 826856
Requeued flit 828138
Requeued flit 827286
Requeued flit 835299
Requeued flit 832370
Requeued flit 835873
Requeued flit 832621
Requeued flit 837527
Requeued flit 837409
Requeued flit 831620
Requeued flit 832706
Requeued flit 838566
Requeued flit 838254
Requeued flit 838638
Requeued flit 840657
Requeued flit 830024
Requeued flit 840069
Requeued flit 835020
Requeued flit 842822
Requeued flit 842152
Requeued flit 828370
Requeued flit 841663
Requeued flit 841080
Requeued flit 839931
Requeued flit 841604
Requeued flit 842709
Requeued flit 838082
Requeued flit 847017
Requeued flit 843942
Requeued flit 847656
Requeued flit 846894
Requeued flit 839013
Requeued flit 841155
Requeued flit 848591
Requeued flit 845143
Requeued flit 849511
Requeued flit 849381
Requeued flit 850392
Requeued flit 850935
Requeued flit 850946
Requeued flit 851320
Requeued flit 851479
Requeued flit 852236
Requeued flit 845232
Requeued flit 852729
Requeued flit 852125
Requeued flit 849731
Requeued flit 852814
Requeued flit 856176
Requeued flit 844861
Requeued flit 853794
Requeued flit 857398
Requeued flit 855249
Requeued flit 851319
Requeued flit 859396
Requeued flit 849345
Requeued flit 851002
Requeued flit 852899
Requeued flit 858839
Requeued flit 857922
Requeued flit 854526
Requeued flit 857203
Requeued flit 862660
Requeued flit 857182
Requeued flit 863667
Requeued flit 864049
Requeued flit 864420
Requeued flit 856782
Requeued flit 864824
Requeued flit 864780
Requeued flit 863230
Requeued flit 865612
Requeued flit 862710
Requeued flit 865485
Requeued flit 857867
Requeued flit 861495
Requeued flit 859741
Requeued flit 866661
Requeued flit 860057
Requeued flit 866805
Requeued flit 860817
Requeued flit 867895
Requeued flit 866978
Requeued flit 867531
Requeued flit 861820
Requeued flit 862525
Requeued flit 870185
Requeued flit 870022
Requeued flit 865800
Requeued flit 869144
Requeued flit 868127
Requeued flit 873539
Requeued flit 872753
Requeued flit 862655
Requeued flit 865987
Requeued flit 874855
Requeued flit 875123
Requeued flit 866398
Requeued flit 865041
Requeued flit 867104
Requeued flit 876131
Requeued flit 876587
Requeued flit 871375
Requeued flit 879892
Requeued flit 867304
Requeued flit 880042
Requeued flit 869658
Requeued flit 880571
Requeued flit 879047
Requeued flit 881837
Requeued flit 871530
Requeued flit 882262
Requeued flit 864634
Requeued flit 874378
Requeued flit 878395
Requeued flit 881285
Requeued flit 879978
Requeued flit 876958
Requeued flit 883035
Requeued flit 878012
Requeued flit 884486
Requeued flit 885918
Requeued flit 878898
Requeued flit 882010
Requeued flit 883563
Requeued flit 887643
Requeued flit 886071
Requeued flit 886953
Requeued flit 881564
Requeued flit 880320
Requeued flit 888389
Requeued flit 889740
Requeued flit 881258
Requeued flit 881623
Requeued flit 889949
Requeued flit 888933
Requeued flit 891472
Requeued flit 891814
Requeued flit 891184
Requeued flit 887647
Requeued flit 893568
Requeued flit 893481
Requeued flit 888924
Requeued flit 893807
Requeued flit 886839
Requeued flit 886725
Requeued flit 891032
Requeued flit 895218
Requeued flit 895855
Requeued flit 894414
Requeued flit 892516
Requeued flit 890632
Requeued flit 897424
Requeued flit 898289
Requeued flit 897121
Requeued flit 897691
Requeued flit 898379
Requeued flit 897825
Requeued flit 901678
Requeued flit 901499
Requeued flit 896272
Requeued flit 896064
Requeued flit 903180
Requeued flit 903045
Requeued flit 896689
Requeued flit 894992
Requeued flit 894321
Requeued flit 901769
Requeued flit 906802
Requeued flit 902659
Requeued flit 905878
Requeued flit 897764
Requeued flit 904171
Requeued flit 904490
Requeued flit 909380
Requeued flit 903038
Requeued flit 908416
Requeued flit 902400
Requeued flit 907722
Requeued flit 907407
Requeued flit 900620
Requeued flit 910233
Requeued flit 911742
Requeued flit 908548
Requeued flit 910998
Requeued flit 912300
Requeued flit 900735
Requeued flit 908870
Requeued flit 912914
Requeued flit 909728
Requeued flit 896485
Requeued flit 910386
Requeued flit 901808
Requeued flit 914026
Requeued flit 913446
Requeued flit 915557
Requeued flit 908448
Requeued flit 916086
Requeued flit 907040
Requeued flit 918702
Requeued flit 909330
Requeued flit 913799
Requeued flit 920433
Requeued flit 918994
Requeued flit 920220
Requeued flit 912608
Requeued flit 921427
Requeued flit 921986
Requeued flit 920839
Requeued flit 921635
Requeued flit 915755
Requeued flit 923791
Requeued flit 921868
Requeued flit 916974
Requeued flit 922969
Requeued flit 924503
Requeued flit 925362
Requeued flit 910799
Requeued flit 926286
Requeued flit 921066
Requeued flit 914312
Requeued flit 917354
Requeued flit 921986
Requeued flit 927872
Requeued flit 915166
Requeued flit 922337
Requeued flit 929565
Requeued flit 927290
Requeued flit 923638
Requeued flit 927343
Requeued flit 930954
Requeued flit 930857
Requeued flit 931164
Requeued flit 927733
Requeued flit 927871
Requeued flit 929745
Requeued flit 922401
Requeued flit 932451
Requeued flit 930238
Requeued flit 924484
Requeued flit 927905
Requeued flit 926640
Requeued flit 936520
Requeued flit 933790
Requeued flit 938352
Requeued flit 938638
Requeued flit 935556
Requeued flit 936968
Requeued flit 936261
Requeued flit 939356
Requeued flit 939586
Requeued flit 924875
Requeued flit 940357
Requeued flit 933237
Requeued flit 941456
Requeued flit 928106
Requeued flit 938621
Requeued flit 934866
Requeued flit 936756
Requeued flit 933933
Requeued flit 945663
Requeued flit 936276
Requeued flit 944286
Requeued flit 935980
Requeued flit 937885
Requeued flit 946968
Requeued flit 949725
Requeued flit 940931
Requeued flit 940816
Requeued flit 944307
Requeued flit 951526
Requeued flit 941144
Requeued flit 952273
Requeued flit 952431
Requeued flit 943657
Requeued flit 953177
Requeued flit 951597
Requeued flit 953638
Requeued flit 946157
Requeued flit 951816
Requeued flit 948889
Requeued flit 947604
Requeued flit 956445
Requeued flit 955527
Requeued flit 957764
Requeued flit 955133
Requeued flit 957861
Requeued flit 950684
Requeued flit 950284
Requeued flit 947980
Requeued flit 958105
Requeued flit 957066
Class 0:
Packet latency average = 144.477
	minimum = 5
	maximum = 766
Network latency average = 144.477
	minimum = 5
	maximum = 766
Slowest packet = 741619
Flit latency average = 144.477
	minimum = 5
	maximum = 766
Slowest flit = 741619
Fragmentation average = 0
	minimum = 0
	maximum = 0
Injected packet rate average = 0.500689
	minimum = 0.4907 (at node 47)
	maximum = 0.5104 (at node 35)
Accepted packet rate average = 0.498894
	minimum = 0.481 (at node 62)
	maximum = 0.5178 (at node 15)
Injected flit rate average = 0.500689
	minimum = 0.4907 (at node 47)
	maximum = 0.5104 (at node 35)
Accepted flit rate average= 0.498894
	minimum = 0.481 (at node 62)
	maximum = 0.5178 (at node 15)
Injected packet length average = 1
Accepted packet length average = 1
Total in-flight flits = 5298 (0 measured)
latency change    = 0.378001
throughput change = 0.00502048
Warmed up ...Time used is 30000 cycles
Requeued flit 960235
Requeued flit 958259
Requeued flit 958199
Requeued flit 960143
Requeued flit 962442
Requeued flit 950247
Requeued flit 957649
Requeued flit 964675
Requeued flit 961322
Requeued flit 964090
Requeued flit 965930
Requeued flit 965507
Requeued flit 946923
Requeued flit 964822
Requeued flit 965632
Requeued flit 960024
Requeued flit 965484
Requeued flit 966318
Requeued flit 963396
Requeued flit 962874
Requeued flit 968830
Requeued flit 960889
Requeued flit 963141
Requeued flit 968710
Requeued flit 964310
Requeued flit 972904
Requeued flit 969466
Requeued flit 965067
Requeued flit 965290
Requeued flit 962393
Requeued flit 965476
Requeued flit 976602
Requeued flit 974474
Requeued flit 973215
Requeued flit 978124
Requeued flit 970839
Requeued flit 971658
Requeued flit 974676
Requeued flit 979154
Requeued flit 978966
Requeued flit 982121
Requeued flit 982618
Requeued flit 976137
Requeued flit 983540
Requeued flit 983375
Requeued flit 985344
Requeued flit 980533
Requeued flit 985979
Requeued flit 983405
Requeued flit 983580
Requeued flit 989356
Requeued flit 984502
Requeued flit 981527
Requeued flit 989594
Requeued flit 988811
Requeued flit 982948
Requeued flit 983358
Requeued flit 992594
Requeued flit 990274
Requeued flit 990327
Requeued flit 994271
Requeued flit 993447
Requeued flit 992921
Requeued flit 996242
Requeued flit 996564
Requeued flit 986027
Requeued flit 984281
Requeued flit 986065
Requeued flit 996685
Requeued flit 993648
Requeued flit 991262
Requeued flit 998618
Requeued flit 990022
Requeued flit 996200
Requeued flit 998741
Requeued flit 987320
Requeued flit 994829
Requeued flit 984464
Requeued flit 1001153
Requeued flit 994640
Requeued flit 1001732
Requeued flit 1002145
Requeued flit 1003515
Requeued flit 998145
Requeued flit 1003159
Requeued flit 1000633
Requeued flit 999384
Requeued flit 1004850
Requeued flit 1004052
Requeued flit 1002249
Requeued flit 1005854
Requeued flit 1006112
Requeued flit 998654
Requeued flit 1006209
Requeued flit 1006162
Requeued flit 1007209
Requeued flit 1003662
Requeued flit 1006674
Requeued flit 999665
Requeued flit 997595
Requeued flit 1000608
Requeued flit 1008441
Requeued flit 1005788
Requeued flit 1002908
Requeued flit 1005344
Requeued flit 1010482
Requeued flit 1006062
Requeued flit 998579
Requeued flit 1001275
Requeued flit 1007418
Requeued flit 1011568
Requeued flit 1000918
Requeued flit 1003822
Requeued flit 1012151
Requeued flit 1011380
Requeued flit 1011275
Requeued flit 1003595
Requeued flit 1009840
Requeued flit 1011026
Requeued flit 1014046
Requeued flit 1003490
Requeued flit 1000819
Requeued flit 1012138
Requeued flit 1012968
Requeued flit 1007472
Requeued flit 1012302
Requeued flit 1007246
Requeued flit 1014112
Requeued flit 1009189
Requeued flit 1016245
Requeued flit 1017071
Requeued flit 1018138
Requeued flit 1008737
Requeued flit 1014849
Requeued flit 1008827
Requeued flit 1019888
Requeued flit 1017483
Requeued flit 1019820
Requeued flit 1019655
Requeued flit 1018644
Requeued flit 1014610
Requeued flit 1019709
Requeued flit 1019904
Requeued flit 1014818
Requeued flit 1024471
Requeued flit 1017482
Requeued flit 1016233
Requeued flit 1004653
Requeued flit 1017458
Requeued flit 1024723
Requeued flit 1027860
Requeued flit 1025433
Requeued flit 1025868
Requeued flit 1011105
Requeued flit 1016939
Requeued flit 1030026
Requeued flit 1027151
Requeued flit 1014712
Requeued flit 1031855
Requeued flit 1028746
Requeued flit 1032112
Requeued flit 1022065
Requeued flit 1028210
Requeued flit 1025063
Requeued flit 1029142
Requeued flit 1034002
Requeued flit 1022432
Requeued flit 1026228
Requeued flit 1030085
Requeued flit 1030360
Requeued flit 1034974
Requeued flit 1033789
Requeued flit 1029354
Requeued flit 1033174
Requeued flit 1035802
Requeued flit 1036820
Requeued flit 1028391
Requeued flit 1038286
Requeued flit 1032857
Requeued flit 1039612
Requeued flit 1036382
Requeued flit 1040560
Requeued flit 1038000
Requeued flit 1038462
Requeued flit 1035187
Requeued flit 1038382
Requeued flit 1034346
Requeued flit 1035613
Requeued flit 1039178
Requeued flit 1029555
Requeued flit 1037763
Requeued flit 1039018
Requeued flit 1035702
Requeued flit 1039771
Requeued flit 1026805
Requeued flit 1035023
Requeued flit 1046063
Requeued flit 1042466
Requeued flit 1046736
Requeued flit 1046830
Requeued flit 1047410
Requeued flit 1045276
Requeued flit 1041267
Requeued flit 1041249
Requeued flit 1039668
Requeued flit 1039224
Requeued flit 1044622
Requeued flit 1043685
Requeued flit 1050168
Requeued flit 1042588
Requeued flit 1047439
Requeued flit 1048241
Requeued flit 1051501
Requeued flit 1047363
Requeued flit 1037748
Requeued flit 1039501
Requeued flit 1047911
Requeued flit 1036928
Requeued flit 1052878
Requeued flit 1052720
Requeued flit 1045198
Requeued flit 1053668
Requeued flit 1052621
Requeued flit 1051025
Requeued flit 1047586
Requeued flit 1050034
Requeued flit 1050579
Requeued flit 1042613
Requeued flit 1047644
Requeued flit 1055790
Requeued flit 1056019
Requeued flit 1048093
Requeued flit 1056581
Requeued flit 1050069
Requeued flit 1054656
Requeued flit 1053971
Requeued flit 1057717
Requeued flit 1050104
Requeued flit 1057244
Requeued flit 1043723
Requeued flit 1044464
Requeued flit 1058963
Requeued flit 1045323
Requeued flit 1059203
Requeued flit 1050787
Requeued flit 1056074
Requeued flit 1060057
Requeued flit 1056959
Requeued flit 1057319
Requeued flit 1049922
Requeued flit 1062019
Requeued flit 1062527
Requeued flit 1057484
Requeued flit 1058389
Requeued flit 1061427
Requeued flit 1060808
Requeued flit 1049240
Requeued flit 1065356
Requeued flit 1066054
Requeued flit 1052664
Requeued flit 1054136
Requeued flit 1068010
Requeued flit 1060482
Requeued flit 1058179
Requeued flit 1064521
Requeued flit 1059937
Requeued flit 1070176
Requeued flit 1066832
Requeued flit 1070728
Requeued flit 1068963
Requeued flit 1071540
Requeued flit 1054422
Requeued flit 1066734
Requeued flit 1069800
Requeued flit 1071584
Requeued flit 1069422
Requeued flit 1074342
Requeued flit 1069854
Requeued flit 1065603
Requeued flit 1073246
Requeued flit 1071105
Requeued flit 1071275
Requeued flit 1065771
Requeued flit 1075882
Requeued flit 1069362
Requeued flit 1064710
Requeued flit 1076680
Requeued flit 1066954
Requeued flit 1077515
Requeued flit 1075772
Requeued flit 1072472
Requeued flit 1073182
Requeued flit 1072580
Requeued flit 1079602
Requeued flit 1077652
Requeued flit 1080021
Requeued flit 1078006
Requeued flit 1080939
Requeued flit 1076716
Requeued flit 1079642
Requeued flit 1079599
Requeued flit 1075035
Requeued flit 1079197
Requeued flit 1084993
Requeued flit 1080901
Requeued flit 1077620
Requeued flit 1075406
Requeued flit 1079194
Requeued flit 1080031
Requeued flit 1082276
Requeued flit 1087237
Requeued flit 1083135
Requeued flit 1087261
Requeued flit 1087815
Requeued flit 1083159
Requeued flit 1074352
Requeued flit 1090382
Requeued flit 1089487
Requeued flit 1085030
Requeued flit 1082187
Requeued flit 1072371
Requeued flit 1088159
Requeued flit 1090971
Requeued flit 1083513
Requeued flit 1081729
Requeued flit 1091505
Requeued flit 1089938
Requeued flit 1083549
Requeued flit 1094070
Requeued flit 1084080
Requeued flit 1083578
Requeued flit 1089785
Requeued flit 1090527
Requeued flit 1092844
Requeued flit 1086902
Requeued flit 1094962
Requeued flit 1096257
Requeued flit 1094945
Requeued flit 1092919
Requeued flit 1096930
Requeued flit 1085813
Requeued flit 1093614
Requeued flit 1090388
Requeued flit 1087472
Requeued flit 1094523
Requeued flit 1095978
Requeued flit 1094317
Requeued flit 1099727
Requeued flit 1100579
Requeued flit 1096303
Requeued flit 1095088
Requeued flit 1101741
Requeued flit 1101544
Requeued flit 1091132
Requeued flit 1091375
Requeued flit 1098136
Requeued flit 1102627
Requeued flit 1102067
Requeued flit 1094532
Requeued flit 1103641
Requeued flit 1103390
Requeued flit 1105553
Requeued flit 1101203
Requeued flit 1095901
Requeued flit 1096154
Requeued flit 1104509
Requeued flit 1103180
Requeued flit 1107789
Requeued flit 1097904
Requeued flit 1108184
Requeued flit 1099584
Requeued flit 1098434
Requeued flit 1091053
Requeued flit 1099254
Requeued flit 1110389
Requeued flit 1108486
Requeued flit 1098106
Requeued flit 1111496
Requeued flit 1105633
Requeued flit 1106900
Requeued flit 1108494
Requeued flit 1113073
Requeued flit 1111359
Requeued flit 1095974
Requeued flit 1108901
Requeued flit 1114571
Requeued flit 1113837
Requeued flit 1106483
Requeued flit 1110024
Requeued flit 1114103
Requeued flit 1114651
Requeued flit 1110395
Requeued flit 1106621
Requeued flit 1116450
Requeued flit 1117471
Requeued flit 1104274
Requeued flit 1112005
Requeued flit 1104670
Requeued flit 1106553
Requeued flit 1115024
Requeued flit 1120284
Requeued flit 1111232
Requeued flit 1112538
Requeued flit 1112821
Requeued flit 1112212
Requeued flit 1117674
Requeued flit 1122699
Requeued flit 1115163
Requeued flit 1123735
Requeued flit 1119919
Requeued flit 1123973
Requeued flit 1124313
Requeued flit 1112513
Requeued flit 1111688
Requeued flit 1117515
Requeued flit 1124995
Requeued flit 1118325
Requeued flit 1117600
Requeued flit 1129055
Requeued flit 1129054
Requeued flit 1132260
Requeued flit 1120099
Requeued flit 1124421
Requeued flit 1133778
Requeued flit 1129397
Requeued flit 1126058
Requeued flit 1134923
Requeued flit 1134651
Requeued flit 1135637
Requeued flit 1136141
Requeued flit 1126297
Requeued flit 1136145
Requeued flit 1133258
Requeued flit 1137509
Requeued flit 1133204
Requeued flit 1134098
Requeued flit 1138411
Requeued flit 1134611
Requeued flit 1126236
Requeued flit 1139420
Requeued flit 1139820
Requeued flit 1132547
Requeued flit 1140071
Requeued flit 1128374
Requeued flit 1129366
Requeued flit 1137287
Requeued flit 1134207
Requeued flit 1122935
Requeued flit 1142919
Requeued flit 1129411
Requeued flit 1139389
Requeued flit 1132010
Requeued flit 1140838
Requeued flit 1128852
Requeued flit 1131906
[...]
in flight = 1988
in flight = 1980
in flight = 1972
in flight = 1960
in flight = 1947
in flight = 1941
in flight = 1933
in flight = 1922
in flight = 1911
in flight = 1901
in flight = 1896
in flight = 1886
in flight = 1877
in flight = 1870
in flight = 1864
in flight = 1853
in flight = 1842
in flight = 1832
in flight = 1826
in flight = 1818
in flight = 1808
Requeued flit 2893814
in flight = 1800
in flight = 1796
in flight = 1786
Requeued flit 2892570
in flight = 1771
Requeued flit 2887847
in flight = 1766
in flight = 1755
in flight = 1748
in flight = 1739
in flight = 1730
in flight = 1718
in flight = 1707
in flight = 1696
in flight = 1687
in flight = 1679
in flight = 1669
in flight = 1660
in flight = 1654
Requeued flit 2894549
in flight = 1646
in flight = 1634
Requeued flit 2887886
in flight = 1618
in flight = 1609
in flight = 1601
in flight = 1595
in flight = 1584
in flight = 1576
in flight = 1569
in flight = 1563
in flight = 1554
in flight = 1546
in flight = 1540
in flight = 1529
in flight = 1524
in flight = 1517
in flight = 1510
in flight = 1502
in flight = 1495
in flight = 1484
Requeued flit 2894873
in flight = 1476
in flight = 1468
in flight = 1462
in flight = 1454
in flight = 1448
in flight = 1441
in flight = 1430
in flight = 1420
in flight = 1408
Requeued flit 2895585
in flight = 1403
in flight = 1398
in flight = 1385
in flight = 1377
in flight = 1371
in flight = 1362
in flight = 1354
Requeued flit 2895502
in flight = 1348
in flight = 1342
Requeued flit 2895766
in flight = 1335
in flight = 1321
in flight = 1315
in flight = 1306
Requeued flit 2879944
in flight = 1304
in flight = 1296
Requeued flit 2895368
in flight = 1290
in flight = 1281
in flight = 1275
in flight = 1264
in flight = 1256
in flight = 1251
in flight = 1241
in flight = 1233
in flight = 1228
in flight = 1224
in flight = 1218
in flight = 1213
in flight = 1208
in flight = 1202
in flight = 1190
Requeued flit 2896247
in flight = 1177
in flight = 1171
in flight = 1163
in flight = 1151
in flight = 1147
Requeued flit 2896691
in flight = 1141
in flight = 1136
in flight = 1127
in flight = 1123
in flight = 1121
in flight = 1117
in flight = 1112
Requeued flit 2896780
in flight = 1100
in flight = 1095
in flight = 1092
in flight = 1088
in flight = 1080
in flight = 1075
in flight = 1068
in flight = 1063
in flight = 1057
in flight = 1050
in flight = 1042
in flight = 1038
in flight = 1032
in flight = 1029
in flight = 1023
in flight = 1020
in flight = 1012
in flight = 1006
in flight = 1003
in flight = 1001
in flight = 997
in flight = 994
in flight = 988
in flight = 981
in flight = 977
in flight = 961
in flight = 956
in flight = 954
in flight = 948
in flight = 946
in flight = 943
in flight = 940
in flight = 935
in flight = 931
in flight = 925
in flight = 921
in flight = 918
in flight = 914
in flight = 914
in flight = 905
in flight = 900
in flight = 896
in flight = 892
in flight = 884
in flight = 880
in flight = 875
in flight = 873
in flight = 867
in flight = 864
in flight = 862
in flight = 854
in flight = 849
in flight = 844
in flight = 840
in flight = 835
in flight = 833
in flight = 829
in flight = 824
in flight = 821
Requeued flit 2882177
in flight = 816
in flight = 809
in flight = 809
in flight = 805
in flight = 800
in flight = 797
in flight = 789
Requeued flit 2895809
in flight = 785
in flight = 783
in flight = 780
in flight = 775
in flight = 772
in flight = 768
in flight = 764
in flight = 759
in flight = 757
in flight = 754
in flight = 751
in flight = 747
in flight = 746
in flight = 744
in flight = 740
in flight = 738
in flight = 732
in flight = 724
Requeued flit 2899509
in flight = 721
in flight = 719
in flight = 716
in flight = 715
Requeued flit 2883231
in flight = 711
in flight = 706
in flight = 701
in flight = 695
in flight = 690
in flight = 685
in flight = 681
in flight = 678
Requeued flit 2890856
in flight = 674
in flight = 670
in flight = 668
in flight = 666
in flight = 665
in flight = 657
in flight = 654
in flight = 650
in flight = 645
in flight = 642
in flight = 639
in flight = 637
in flight = 632
in flight = 625
in flight = 625
in flight = 623
in flight = 621
in flight = 618
in flight = 614
in flight = 614
Requeued flit 2900602
in flight = 613
in flight = 610
in flight = 607
in flight = 604
in flight = 603
in flight = 599
in flight = 595
in flight = 590
in flight = 587
in flight = 581
in flight = 580
in flight = 574
in flight = 568
in flight = 566
in flight = 564
in flight = 560
in flight = 556
in flight = 554
in flight = 549
in flight = 543
in flight = 539
in flight = 534
in flight = 529
in flight = 525
in flight = 522
in flight = 518
in flight = 517
in flight = 517
in flight = 513
in flight = 510
Requeued flit 2901590
in flight = 508
Requeued flit 2891828
in flight = 506
in flight = 504
in flight = 497
in flight = 491
in flight = 487
in flight = 485
in flight = 481
in flight = 479
in flight = 476
in flight = 474
in flight = 471
in flight = 468
in flight = 467
in flight = 463
in flight = 459
in flight = 456
in flight = 453
Requeued flit 2892238
in flight = 450
in flight = 450
in flight = 447
in flight = 445
in flight = 444
in flight = 441
in flight = 438
in flight = 433
in flight = 431
in flight = 430
in flight = 428
in flight = 424
in flight = 422
in flight = 419
Requeued flit 2886725
in flight = 417
in flight = 414
Requeued flit 2892796
in flight = 410
in flight = 407
in flight = 404
in flight = 402
in flight = 399
in flight = 397
in flight = 392
in flight = 391
in flight = 386
in flight = 382
in flight = 381
in flight = 380
in flight = 379
in flight = 375
in flight = 370
in flight = 368
in flight = 365
in flight = 362
Requeued flit 2887406
in flight = 358
in flight = 357
in flight = 356
Requeued flit 2888884
in flight = 353
in flight = 349
in flight = 347
in flight = 344
in flight = 342
in flight = 341
in flight = 341
in flight = 337
in flight = 337
in flight = 333
in flight = 328
in flight = 326
in flight = 326
in flight = 322
in flight = 321
in flight = 317
in flight = 317
in flight = 313
in flight = 309
in flight = 306
in flight = 303
in flight = 299
in flight = 299
in flight = 295
in flight = 292
in flight = 290
in flight = 286
in flight = 283
in flight = 282
in flight = 280
in flight = 275
in flight = 274
in flight = 274
in flight = 272
in flight = 271
in flight = 270
in flight = 269
in flight = 268
in flight = 264
in flight = 261
in flight = 258
in flight = 258
in flight = 257
in flight = 256
in flight = 255
in flight = 253
in flight = 253
in flight = 253
in flight = 253
in flight = 250
in flight = 245
in flight = 243
in flight = 242
in flight = 240
in flight = 237
in flight = 235
in flight = 234
in flight = 231
in flight = 229
in flight = 227
Requeued flit 2892457
in flight = 226
in flight = 223
in flight = 223
in flight = 221
in flight = 220
in flight = 220
in flight = 219
in flight = 215
in flight = 214
in flight = 213
in flight = 211
in flight = 208
in flight = 206
in flight = 204
Requeued flit 2896023
in flight = 202
in flight = 201
in flight = 198
in flight = 195
in flight = 195
in flight = 193
in flight = 191
in flight = 190
Requeued flit 2896264
in flight = 189
in flight = 188
in flight = 184
Requeued flit 2889604
in flight = 181
in flight = 179
in flight = 178
in flight = 177
in flight = 173
in flight = 170
Requeued flit 2895915
in flight = 170
in flight = 170
in flight = 166
in flight = 163
in flight = 163
in flight = 162
in flight = 161
in flight = 160
in flight = 158
in flight = 157
in flight = 155
in flight = 152
in flight = 151
Requeued flit 2890743
in flight = 151
in flight = 150
in flight = 149
Requeued flit 2897931
in flight = 146
in flight = 143
in flight = 140
in flight = 138
in flight = 137
Requeued flit 2906962
in flight = 137
in flight = 133
in flight = 133
in flight = 131
in flight = 130
in flight = 129
in flight = 129
in flight = 127
in flight = 126
in flight = 125
in flight = 123
in flight = 121
in flight = 119
in flight = 118
in flight = 118
in flight = 115
in flight = 113
in flight = 112
in flight = 111
in flight = 107
in flight = 106
in flight = 103
in flight = 102
in flight = 101
in flight = 99
in flight = 99
in flight = 99
Requeued flit 2906194
in flight = 98
in flight = 96
in flight = 95
in flight = 94
in flight = 93
in flight = 91
in flight = 90
in flight = 89
in flight = 86
in flight = 86
Requeued flit 2908094
Requeued flit 2906803
in flight = 85
in flight = 83
in flight = 83
in flight = 81
in flight = 81
in flight = 79
in flight = 79
Requeued flit 2901428
in flight = 78
in flight = 76
in flight = 75
in flight = 74
in flight = 74
in flight = 73
in flight = 72
in flight = 72
in flight = 72
in flight = 70
in flight = 67
in flight = 67
in flight = 66
in flight = 66
in flight = 66
in flight = 65
in flight = 63
in flight = 62
in flight = 61
in flight = 59
in flight = 56
in flight = 56
in flight = 55
in flight = 54
in flight = 54
in flight = 54
in flight = 53
in flight = 53
in flight = 52
in flight = 52
in flight = 51
in flight = 50
in flight = 49
in flight = 49
in flight = 47
in flight = 45
in flight = 45
in flight = 44
in flight = 44
in flight = 44
in flight = 43
in flight = 42
in flight = 42
in flight = 41
in flight = 41
in flight = 40
in flight = 39
in flight = 39
in flight = 39
in flight = 39
in flight = 39
in flight = 39
in flight = 38
in flight = 36
in flight = 36
in flight = 35
in flight = 34
in flight = 33
in flight = 33
in flight = 32
in flight = 32
in flight = 32
in flight = 32
in flight = 31
in flight = 31
in flight = 30
in flight = 30
in flight = 29
in flight = 29
in flight = 28
in flight = 28
in flight = 28
in flight = 28
in flight = 28
in flight = 28
in flight = 28
in flight = 28
in flight = 27
in flight = 27
in flight = 27
in flight = 27
Requeued flit 2910947
in flight = 27
in flight = 27
in flight = 26
in flight = 25
in flight = 25
in flight = 25
in flight = 25
in flight = 25
in flight = 25
in flight = 25
in flight = 25
in flight = 25
in flight = 25
Requeued flit 2894991
in flight = 24
in flight = 24
in flight = 23
in flight = 23
in flight = 23
in flight = 23
in flight = 23
in flight = 23
in flight = 23
in flight = 23
Requeued flit 2904943
in flight = 23
in flight = 22
in flight = 22
in flight = 22
in flight = 22
Requeued flit 2908694
in flight = 22
in flight = 22
in flight = 22
in flight = 21
in flight = 21
in flight = 21
in flight = 21
in flight = 21
in flight = 21
in flight = 21
Requeued flit 2912095
in flight = 20
in flight = 20
in flight = 20
in flight = 20
in flight = 20
in flight = 19
in flight = 19
Requeued flit 2908922
in flight = 19
in flight = 17
Class 0:
Remaining flits: 2873950 2874776 2874944 2876115 2876299 2876467 2876654 2876685 2877823 2878565 [...] (9514 flits)
Measured flits: 2873950 2874776 2874944 2876115 2876299 2876467 2876654 2876685 2877823 2878565 [...] (17 flits)
in flight = 17
in flight = 17
in flight = 17
in flight = 17
in flight = 17
in flight = 17
in flight = 16
Requeued flit 2903011
in flight = 16
in flight = 16
in flight = 16
in flight = 16
in flight = 16
Requeued flit 2898758
in flight = 16
in flight = 16
Requeued flit 2903352
in flight = 16
in flight = 16
in flight = 16
in flight = 16
in flight = 16
Requeued flit 2903514
in flight = 16
in flight = 16
in flight = 16
in flight = 16
in flight = 16
Requeued flit 2903240
in flight = 16
in flight = 16
in flight = 16
in flight = 15
in flight = 15
in flight = 15
in flight = 15
in flight = 15
in flight = 15
in flight = 15
in flight = 15
in flight = 15
in flight = 15
in flight = 15
in flight = 15
in flight = 15
Requeued flit 2910026
in flight = 15
in flight = 15
in flight = 15
in flight = 15
in flight = 15
in flight = 15
in flight = 15
Requeued flit 2897878
in flight = 15
in flight = 15
in flight = 15
in flight = 15
Requeued flit 2874776
in flight = 15
in flight = 15
in flight = 15
in flight = 15
in flight = 15
in flight = 15
in flight = 15
in flight = 15
in flight = 14
in flight = 14
in flight = 14
in flight = 14
in flight = 12
in flight = 12
in flight = 12
in flight = 12
in flight = 12
in flight = 12
in flight = 12
Requeued flit 2914726
in flight = 12
in flight = 12
in flight = 12
in flight = 12
in flight = 12
in flight = 12
in flight = 12
in flight = 12
in flight = 12
in flight = 12
Requeued flit 2897317
in flight = 12
in flight = 12
in flight = 12
in flight = 12
in flight = 12
in flight = 12
in flight = 12
in flight = 12
in flight = 12
in flight = 12
in flight = 12
in flight = 12
in flight = 12
in flight = 12
in flight = 12
in flight = 12
in flight = 12
Requeued flit 2915636
Requeued flit 2907203
in flight = 12
in flight = 12
in flight = 12
in flight = 12
in flight = 12
in flight = 12
in flight = 12
in flight = 11
in flight = 10
in flight = 9
in flight = 9
in flight = 9
in flight = 9
Requeued flit 2890278
in flight = 9
in flight = 9
in flight = 9
in flight = 9
in flight = 9
in flight = 8
in flight = 8
in flight = 8
in flight = 7
in flight = 7
in flight = 7
in flight = 7
in flight = 7
in flight = 7
in flight = 7
in flight = 7
in flight = 7
in flight = 7
in flight = 7
in flight = 7
in flight = 7
Requeued flit 2916696
in flight = 7
in flight = 7
Requeued flit 2902318
in flight = 7
in flight = 7
in flight = 7
in flight = 7
in flight = 7
in flight = 7
in flight = 7
in flight = 7
in flight = 7
in flight = 7
in flight = 7
in flight = 7
in flight = 7
in flight = 7
in flight = 7
in flight = 7
in flight = 7
in flight = 7
in flight = 7
in flight = 7
in flight = 7
in flight = 7
in flight = 7
in flight = 7
in flight = 7
in flight = 7
in flight = 7
in flight = 7
in flight = 7
in flight = 7
in flight = 7
in flight = 7
in flight = 7
in flight = 7
in flight = 7
in flight = 7
in flight = 7
in flight = 7
in flight = 7
in flight = 6
in flight = 6
in flight = 6
in flight = 6
in flight = 6
in flight = 6
in flight = 6
in flight = 6
in flight = 6
in flight = 6
in flight = 6
in flight = 6
in flight = 6
Requeued flit 2903727
in flight = 6
in flight = 6
in flight = 6
in flight = 6
in flight = 6
in flight = 6
in flight = 6
in flight = 6
in flight = 6
in flight = 6
in flight = 6
in flight = 6
in flight = 6
in flight = 6
in flight = 6
in flight = 6
in flight = 6
in flight = 6
in flight = 6
in flight = 6
in flight = 6
in flight = 6
in flight = 5
in flight = 5
in flight = 5
in flight = 5
in flight = 5
in flight = 5
Requeued flit 2919127
in flight = 5
in flight = 5
in flight = 5
in flight = 5
in flight = 5
in flight = 5
in flight = 5
in flight = 5
in flight = 5
in flight = 5
in flight = 5
in flight = 5
in flight = 5
in flight = 5
in flight = 5
in flight = 5
in flight = 5
in flight = 4
in flight = 4
in flight = 4
in flight = 4
in flight = 4
in flight = 4
in flight = 4
in flight = 4
in flight = 4
in flight = 4
in flight = 4
in flight = 4
in flight = 4
in flight = 4
in flight = 4
in flight = 4
Requeued flit 2920360
in flight = 4
in flight = 4
in flight = 4
in flight = 4
in flight = 4
in flight = 4
in flight = 4
in flight = 4
in flight = 3
Requeued flit 2917166
in flight = 3
in flight = 3
in flight = 3
in flight = 3
in flight = 3
in flight = 3
in flight = 3
in flight = 3
in flight = 3
in flight = 3
in flight = 3
in flight = 3
in flight = 3
in flight = 3
in flight = 3
in flight = 3
in flight = 3
in flight = 3
in flight = 2
in flight = 1
in flight = 1
in flight = 1
in flight = 1
in flight = 1
in flight = 1
in flight = 1
in flight = 1
in flight = 1
in flight = 1
in flight = 1
in flight = 1
in flight = 1
in flight = 1
in flight = 1
in flight = 1
in flight = 1
in flight = 1
in flight = 1
in flight = 1
in flight = 1
in flight = 1
in flight = 1
in flight = 1
in flight = 1
Requeued flit 2905020
in flight = 1
in flight = 1
Requeued flit 2904452
in flight = 1
in flight = 1
in flight = 1
Requeued flit 2892769
in flight = 1
in flight = 1
in flight = 1
Requeued flit 2912092
in flight = 1
in flight = 1
in flight = 1
Requeued flit 2922397
Requeued flit 2896506
in flight = 1
in flight = 1
in flight = 1
in flight = 1
in flight = 1
in flight = 1
in flight = 1
in flight = 1
Requeued flit 2922780
in flight = 1
in flight = 1
in flight = 1
in flight = 1
in flight = 1
in flight = 1
in flight = 1
in flight = 1
in flight = 1
in flight = 1
in flight = 1
in flight = 1
in flight = 1
in flight = 1
in flight = 1
in flight = 1
in flight = 1
in flight = 1
in flight = 1
in flight = 1
in flight = 1
in flight = 1
in flight = 1
in flight = 1
in flight = 1
in flight = 1
in flight = 1
in flight = 1
in flight = 1
in flight = 1
in flight = 1
in flight = 1
in flight = 1
in flight = 1
in flight = 1
Requeued flit 2910018
in flight = 1
Requeued flit 2895035
in flight = 1
in flight = 1
in flight = 1
in flight = 1
in flight = 1
Requeued flit 2917247
in flight = 1
Requeued flit 2895282
in flight = 1
in flight = 1
in flight = 1
in flight = 1
in flight = 1
in flight = 1
in flight = 1
in flight = 1
in flight = 1
in flight = 1
in flight = 1
in flight = 1
in flight = 1
in flight = 1
in flight = 1
in flight = 1
in flight = 1
in flight = 1
in flight = 1
in flight = 1
in flight = 1
in flight = 1
Requeued flit 2924661
in flight = 1
in flight = 1
in flight = 1
in flight = 1
in flight = 1
in flight = 1
in flight = 1
in flight = 1
in flight = 1
Requeued flit 2925110
in flight = 1
in flight = 1
in flight = 1
Requeued flit 2921662
in flight = 1
in flight = 1
in flight = 1
in flight = 1
in flight = 1
in flight = 1
in flight = 1
in flight = 1
in flight = 1
in flight = 1
in flight = 1
Requeued flit 2925423
in flight = 1
in flight = 1
in flight = 1
in flight = 1
in flight = 1
in flight = 1
in flight = 1
in flight = 1
in flight = 1
in flight = 1
in flight = 1
in flight = 1
in flight = 1
in flight = 1
in flight = 1
in flight = 1
Requeued flit 2921699
in flight = 1
in flight = 1
in flight = 1
Requeued flit 2926083
in flight = 1
in flight = 1
in flight = 1
in flight = 1
in flight = 1
in flight = 1
in flight = 1
in flight = 1
in flight = 1
in flight = 1
in flight = 1
in flight = 1
Requeued flit 2912677
in flight = 1
in flight = 1
in flight = 1
in flight = 1
in flight = 1
in flight = 1
in flight = 1
in flight = 1
in flight = 1
in flight = 1
Requeued flit 2923655
in flight = 1
in flight = 1
in flight = 1
in flight = 1
in flight = 1
in flight = 1
in flight = 1
in flight = 1
in flight = 1
Requeued flit 2910866
in flight = 1
in flight = 1
in flight = 1
in flight = 1
in flight = 1
in flight = 1
in flight = 1
in flight = 1
Requeued flit 2927472
in flight = 1
in flight = 1
in flight = 1
in flight = 1
in flight = 1
Requeued flit 2920887
in flight = 1
in flight = 1
in flight = 1
in flight = 1
in flight = 1
Draining remaining packets ...
Requeued flit 2907441
Requeued flit 2928089
Requeued flit 2926438
Requeued flit 2924473
Requeued flit 2925571
Requeued flit 2917402
Requeued flit 2922326
Requeued flit 2919659
Requeued flit 2920437
Requeued flit 2916999
Requeued flit 2921152
Requeued flit 2919037
Requeued flit 2925682
Requeued flit 2922404
Requeued flit 2915871
Requeued flit 2925792
Requeued flit 2925897
Requeued flit 2927138
Requeued flit 2926784
Requeued flit 2928093
Requeued flit 2924881
Requeued flit 2926697
Requeued flit 2913454
Requeued flit 2926306
Time taken is 92237 cycles
====== Overall Traffic Statistics ======
====== Traffic class 0 ======
Packet latency average = 221.567 (1 samples)
	minimum = 5 (1 samples)
	maximum = 1662 (1 samples)
Network latency average = 221.567 (1 samples)
	minimum = 5 (1 samples)
	maximum = 1662 (1 samples)
Flit latency average = 223.426 (1 samples)
	minimum = 5 (1 samples)
	maximum = 1662 (1 samples)
Fragmentation average = 0 (1 samples)
	minimum = 0 (1 samples)
	maximum = 0 (1 samples)
Injected packet rate average = 0.500186 (1 samples)
	minimum = 0.4959 (1 samples)
	maximum = 0.503967 (1 samples)
Accepted packet rate average = 0.499146 (1 samples)
	minimum = 0.491317 (1 samples)
	maximum = 0.50465 (1 samples)
Injected flit rate average = 0.500186 (1 samples)
	minimum = 0.4959 (1 samples)
	maximum = 0.503967 (1 samples)
Accepted flit rate average = 0.499146 (1 samples)
	minimum = 0.491317 (1 samples)
	maximum = 0.50465 (1 samples)
Injected packet size average = 1 (1 samples)
Accepted packet size average = 1 (1 samples)
Hops average = 6.25069 (1 samples)
Total run time 207.891
