BEGIN Configuration File: examples/ecc_mesh88_config_0_0.650_packet_2
// $Id$

// Copyright (c) 2007-2015, Trustees of The Leland Stanford Junior University
// All rights reserved.
//
// Redistribution and use in source and binary forms, with or without
// modification, are permitted provided that the following conditions are met:
//
// Redistributions of source code must retain the above copyright notice, this
// list of conditions and the following disclaimer.
// Redistributions in binary form must reproduce the above copyright notice,
// this list of conditions and the following disclaimer in the documentation
// and/or other materials provided with the distribution.
//
// THIS SOFTWARE IS PROVIDED BY THE COPYRIGHT HOLDERS AND CONTRIBUTORS "AS IS"
// AND ANY EXPRESS OR IMPLIED WARRANTIES, INCLUDING, BUT NOT LIMITED TO, THE
// IMPLIED WARRANTIES OF MERCHANTABILITY AND FITNESS FOR A PARTICULAR PURPOSE
// ARE DISCLAIMED. IN NO EVENT SHALL THE COPYRIGHT OWNER OR CONTRIBUTORS BE
// LIABLE FOR ANY DIRECT, INDIRECT, INCIDENTAL, SPECIAL, EXEMPLARY, OR
// CONSEQUENTIAL DAMAGES (INCLUDING, BUT NOT LIMITED TO, PROCUREMENT OF
// SUBSTITUTE GOODS OR SERVICES; LOSS OF USE, DATA, OR PROFITS; OR BUSINESS
// INTERRUPTION) HOWEVER CAUSED AND ON ANY THEORY OF LIABILITY, WHETHER IN
// CONTRACT, STRICT LIABILITY, OR TORT (INCLUDING NEGLIGENCE OR OTHERWISE)
// ARISING IN ANY WAY OUT OF THE USE OF THIS SOFTWARE, EVEN IF ADVISED OF THE
// POSSIBILITY OF SUCH DAMAGE.

// Dragonfly
//




vc_buf_size = 256;


wait_for_tail_credit = 0;

//
// Router architecture
//
vc_allocator = separable_input_first; 
sw_allocator = separable_input_first;
alloc_iters  = 1;

credit_delay   = 2;
routing_delay  = 0;
vc_alloc_delay = 1;
sw_alloc_delay = 1;
st_final_delay = 1;

input_speedup     = 1;
output_speedup    = 1;
internal_speedup  = 2.0;


warmup_periods = 3;
sim_count          = 1;

sample_period  = 10000;  


routing_function = dor;
num_vcs     = 2;

priority = none;
traffic       = uniform; 

injection_rate = 0.65;
packet_size = 1;
injection_rate_uses_flits=1;

topology = mesh;

k  = 8;
n  = 2;

fer = 2;
ecc = link;
correctable = 0;

watch_out=-;
watch_file = watch.txt;

ecc = packet;

stats_out = examples/ecc_mesh88_config_0_0.650_packet_2.m;

END Configuration File: examples/ecc_mesh88_config_0_0.650_packet_2
Additional hops: 5
Adding flit 12 as NACK at time 17
Additional hops: 7
Adding flit 414 as NACK at time 19
Additional hops: 10
Adding flit 263 as NACK at time 19
Additional hops: 15
Adding flit 167 as NACK at time 21
Additional hops: 17
Adding flit 545 as NACK at time 22
Additional hops: 20
Adding flit 463 as NACK at time 23
Additional hops: 25
Adding flit 191 as NACK at time 23
Reenqueueing errored packet 414 at time 24
Additional hops: 30
Adding flit 302 as NACK at time 24
Additional hops: 33
Adding flit 481 as NACK at time 25
Additional hops: 35
Adding flit 702 as NACK at time 25
Additional hops: 41
Adding flit 138 as NACK at time 25
Reenqueueing errored packet 263 at time 26
Additional hops: 48
Adding flit 19 as NACK at time 26
Additional hops: 55
Adding flit 66 as NACK at time 26
Reenqueueing errored packet 545 at time 27
Reenqueueing errored packet 12 at time 28
Reenqueueing errored packet 702 at time 30
Reenqueueing errored packet 463 at time 30
Additional hops: 63
Adding flit 154 as NACK at time 30
Additional hops: 66
Adding flit 747 as NACK at time 30
Additional hops: 69
Adding flit 839 as NACK at time 31
Reenqueueing errored packet 481 at time 32
Reenqueueing errored packet 167 at time 32
Additional hops: 77
Adding flit 178 as NACK at time 32
Reenqueueing errored packet 191 at time 34
Additional hops: 84
Adding flit 416 as NACK at time 34
Additional hops: 90
Adding flit 552 as NACK at time 34
Additional hops: 95
Adding flit 644 as NACK at time 34
Additional hops: 99
Adding flit 796 as NACK at time 34
Reenqueueing errored packet 302 at time 35
Additional hops: 107
Adding flit 368 as NACK at time 35
Additional hops: 113
Adding flit 459 as NACK at time 35
Additional hops: 123
Adding flit 121 as NACK at time 35
Additional hops: 126
Adding flit 979 as NACK at time 36
Additional hops: 130
Adding flit 834 as NACK at time 36
Reenqueueing errored packet 747 at time 37
Additional hops: 136
Adding flit 520 as NACK at time 37
Additional hops: 140
Adding flit 932 as NACK at time 37
Reenqueueing errored packet 839 at time 38
Reenqueueing errored packet 138 at time 38
Additional hops: 144
Adding flit 911 as NACK at time 38
Additional hops: 150
Adding flit 659 as NACK at time 38
Additional hops: 155
Adding flit 738 as NACK at time 38
Additional hops: 163
Adding flit 247 as NACK at time 39
Additional hops: 171
Adding flit 415 as NACK at time 39
Additional hops: 173
Adding flit 1057 as NACK at time 39
Additional hops: 179
Adding flit 670 as NACK at time 39
Additional hops: 184
Adding flit 739 as NACK at time 40
Additional hops: 192
Adding flit 562 as NACK at time 40
Additional hops: 197
Adding flit 835 as NACK at time 40
Additional hops: 201
Adding flit 982 as NACK at time 40
Reenqueueing errored packet 66 at time 41
Reenqueueing errored packet 19 at time 41
Additional hops: 205
Adding flit 868 as NACK at time 41
Additional hops: 214
Adding flit 443 as NACK at time 41
Additional hops: 217
Adding flit 1088 as NACK at time 42
Reenqueueing errored packet 979 at time 43
Reenqueueing errored packet 796 at time 43
Additional hops: 222
Adding flit 981 as NACK at time 43
Additional hops: 231
Adding flit 278 as NACK at time 43
Additional hops: 236
Adding flit 675 as NACK at time 43
Reenqueueing errored packet 1057 at time 44
Additional hops: 243
Adding flit 441 as NACK at time 44
Reenqueueing errored packet 834 at time 45
Reenqueueing errored packet 644 at time 45
Additional hops: 252
Adding flit 277 as NACK at time 45
Reenqueueing errored packet 932 at time 46
Additional hops: 258
Adding flit 1039 as NACK at time 46
Reenqueueing errored packet 911 at time 47
Reenqueueing errored packet 552 at time 47
Reenqueueing errored packet 154 at time 47
Additional hops: 268
Adding flit 205 as NACK at time 47
Reenqueueing errored packet 459 at time 48
Additional hops: 275
Adding flit 526 as NACK at time 48
Additional hops: 284
Adding flit 435 as NACK at time 48
Additional hops: 291
Adding flit 736 as NACK at time 48
Reenqueueing errored packet 1088 at time 49
Reenqueueing errored packet 982 at time 49
Reenqueueing errored packet 738 at time 49
Reenqueueing errored packet 416 at time 49
Reenqueueing errored packet 178 at time 49
Additional hops: 298
Adding flit 947 as NACK at time 49
Reenqueueing errored packet 868 at time 50
Reenqueueing errored packet 520 at time 50
Additional hops: 304
Adding flit 974 as NACK at time 50
Additional hops: 306
Adding flit 1684 as NACK at time 50
Reenqueueing errored packet 835 at time 51
Reenqueueing errored packet 739 at time 51
Additional hops: 318
Adding flit 265 as NACK at time 51
Reenqueueing errored packet 670 at time 52
Reenqueueing errored packet 368 at time 52
Additional hops: 329
Adding flit 546 as NACK at time 52
Additional hops: 335
Adding flit 1177 as NACK at time 53
Reenqueueing errored packet 675 at time 54
Reenqueueing errored packet 981 at time 54
Additional hops: 340
Adding flit 1150 as NACK at time 54
Additional hops: 347
Adding flit 572 as NACK at time 54
Additional hops: 350
Adding flit 1749 as NACK at time 54
Reenqueueing errored packet 1684 at time 55
Additional hops: 357
Adding flit 1122 as NACK at time 55
Additional hops: 367
Adding flit 446 as NACK at time 55
Additional hops: 375
Adding flit 1043 as NACK at time 55
Additional hops: 385
Adding flit 394 as NACK at time 55
Reenqueueing errored packet 415 at time 56
Reenqueueing errored packet 247 at time 56
Reenqueueing errored packet 121 at time 56
Reenqueueing errored packet 562 at time 57
Additional hops: 398
Adding flit 387 as NACK at time 57
Additional hops: 402
Adding flit 1670 as NACK at time 57
Additional hops: 408
Adding flit 1174 as NACK at time 57
Additional hops: 413
Adding flit 1521 as NACK at time 58
Additional hops: 418
Adding flit 1487 as NACK at time 58
Additional hops: 422
Adding flit 1377 as NACK at time 58
Additional hops: 427
Adding flit 1173 as NACK at time 58
Reenqueueing errored packet 1039 at time 59
Reenqueueing errored packet 441 at time 59
Additional hops: 430
Adding flit 1815 as NACK at time 59
Additional hops: 440
Adding flit 484 as NACK at time 59
Additional hops: 448
Adding flit 905 as NACK at time 59
Reenqueueing errored packet 443 at time 60
Additional hops: 454
Adding flit 787 as NACK at time 60
Additional hops: 463
Adding flit 540 as NACK at time 60
Additional hops: 467
Adding flit 1798 as NACK at time 60
Reenqueueing errored packet 1749 at time 61
Additional hops: 475
Adding flit 1230 as NACK at time 61
Additional hops: 482
Adding flit 883 as NACK at time 61
Reenqueueing errored packet 278 at time 62
Additional hops: 488
Adding flit 1360 as NACK at time 62
Additional hops: 494
Adding flit 1139 as NACK at time 62
Reenqueueing errored packet 974 at time 63
Reenqueueing errored packet 736 at time 63
Reenqueueing errored packet 526 at time 63
Additional hops: 499
Adding flit 1786 as NACK at time 63
Additional hops: 502
Adding flit 2094 as NACK at time 63
Additional hops: 509
Adding flit 1284 as NACK at time 63
Additional hops: 519
Adding flit 523 as NACK at time 63
Additional hops: 522
Adding flit 1946 as NACK at time 63
Additional hops: 526
Adding flit 1698 as NACK at time 63
Additional hops: 531
Adding flit 1866 as NACK at time 63
Reenqueueing errored packet 947 at time 64
Reenqueueing errored packet 277 at time 64
Reenqueueing errored packet 1150 at time 65
Additional hops: 535
Adding flit 1611 as NACK at time 65
Additional hops: 539
Adding flit 1925 as NACK at time 65
Reenqueueing errored packet 1815 at time 66
Reenqueueing errored packet 1670 at time 66
Reenqueueing errored packet 1177 at time 66
Additional hops: 548
Adding flit 1265 as NACK at time 66
Reenqueueing errored packet 1377 at time 67
Reenqueueing errored packet 435 at time 67
Additional hops: 555
Adding flit 1625 as NACK at time 67
Reenqueueing errored packet 205 at time 68
Additional hops: 566
Adding flit 742 as NACK at time 68
Additional hops: 569
Adding flit 2392 as NACK at time 68
Reenqueueing errored packet 1798 at time 69
Reenqueueing errored packet 1173 at time 69
Reenqueueing errored packet 1487 at time 69
Reenqueueing errored packet 1521 at time 69
Reenqueueing errored packet 572 at time 69
Additional hops: 574
Adding flit 2032 as NACK at time 69
Additional hops: 580
Adding flit 1471 as NACK at time 69
Additional hops: 588
Adding flit 838 as NACK at time 69
Additional hops: 593
Adding flit 1864 as NACK at time 69
Additional hops: 601
Adding flit 1108 as NACK at time 69
Reenqueueing errored packet 1946 at time 70
Reenqueueing errored packet 2094 at time 70
Reenqueueing errored packet 1174 at time 70
Reenqueueing errored packet 1122 at time 70
Additional hops: 608
Adding flit 1350 as NACK at time 71
Reenqueueing errored packet 1698 at time 72
Reenqueueing errored packet 1043 at time 72
Reenqueueing errored packet 787 at time 73
Additional hops: 621
Adding flit 382 as NACK at time 73
Reenqueueing errored packet 1925 at time 74
Reenqueueing errored packet 1611 at time 74
Reenqueueing errored packet 1866 at time 74
Reenqueueing errored packet 1786 at time 74
Additional hops: 628
Adding flit 1628 as NACK at time 74
Additional hops: 634
Adding flit 1825 as NACK at time 74
Reenqueueing errored packet 2392 at time 75
Reenqueueing errored packet 1360 at time 75
Reenqueueing errored packet 546 at time 75
Additional hops: 642
Adding flit 1592 as NACK at time 75
Additional hops: 651
Adding flit 1536 as NACK at time 75
Reenqueueing errored packet 883 at time 76
Reenqueueing errored packet 905 at time 76
Reenqueueing errored packet 394 at time 76
Reenqueueing errored packet 446 at time 76
Reenqueueing errored packet 265 at time 76
Additional hops: 662
Adding flit 851 as NACK at time 76
Additional hops: 670
Adding flit 1050 as NACK at time 77
Additional hops: 675
Adding flit 1952 as NACK at time 77
Additional hops: 682
Adding flit 1723 as NACK at time 77
Additional hops: 688
Adding flit 2039 as NACK at time 77
Reenqueueing errored packet 1284 at time 78
Reenqueueing errored packet 1230 at time 78
Additional hops: 692
Adding flit 2460 as NACK at time 78
Reenqueueing errored packet 540 at time 79
Additional hops: 696
Adding flit 2611 as NACK at time 79
Additional hops: 702
Adding flit 1725 as NACK at time 79
Reenqueueing errored packet 1864 at time 80
Reenqueueing errored packet 2032 at time 80
Reenqueueing errored packet 484 at time 80
Additional hops: 709
Adding flit 1396 as NACK at time 80
Additional hops: 714
Adding flit 1657 as NACK at time 80
Additional hops: 723
Adding flit 1379 as NACK at time 81
Additional hops: 729
Adding flit 1132 as NACK at time 81
Additional hops: 738
Adding flit 1431 as NACK at time 81
Additional hops: 744
Adding flit 1876 as NACK at time 81
Reenqueueing errored packet 1471 at time 82
Reenqueueing errored packet 1625 at time 82
Additional hops: 749
Adding flit 2582 as NACK at time 82
Additional hops: 752
Adding flit 2723 as NACK at time 82
Additional hops: 760
Adding flit 1584 as NACK at time 82
Additional hops: 766
Adding flit 1493 as NACK at time 83
Additional hops: 774
Adding flit 1780 as NACK at time 83
Reenqueueing errored packet 523 at time 84
Reenqueueing errored packet 387 at time 84
Additional hops: 780
Adding flit 1612 as NACK at time 84
Additional hops: 784
Adding flit 2685 as NACK at time 84
Additional hops: 792
Adding flit 1798 as NACK at time 84
Reenqueueing errored packet 1265 at time 85
Additional hops: 799
Adding flit 2148 as NACK at time 85
Additional hops: 806
Adding flit 2251 as NACK at time 85
Additional hops: 814
Adding flit 1767 as NACK at time 85
Reenqueueing errored packet 1350 at time 86
Reenqueueing errored packet 1108 at time 86
Reenqueueing errored packet 838 at time 86
Additional hops: 827
Adding flit 1046 as NACK at time 86
Additional hops: 837
Adding flit 1020 as NACK at time 86
Reenqueueing errored packet 2460 at time 87
Reenqueueing errored packet 1825 at time 87
Additional hops: 841
Adding flit 3015 as NACK at time 87
Reenqueueing errored packet 2611 at time 88
Reenqueueing errored packet 1952 at time 88
Additional hops: 844
Adding flit 3178 as NACK at time 88
Additional hops: 853
Adding flit 1069 as NACK at time 88
Reenqueueing errored packet 2723 at time 89
Reenqueueing errored packet 1628 at time 89
Additional hops: 855
Adding flit 3237 as NACK at time 89
Additional hops: 868
Adding flit 1027 as NACK at time 89
Additional hops: 871
Adding flit 3118 as NACK at time 89
Additional hops: 883
Adding flit 904 as NACK at time 89
Reenqueueing errored packet 2039 at time 90
Additional hops: 888
Adding flit 2744 as NACK at time 90
Additional hops: 896
Adding flit 1685 as NACK at time 90
Additional hops: 905
Adding flit 1270 as NACK at time 90
Reenqueueing errored packet 1657 at time 91
Reenqueueing errored packet 742 at time 91
Additional hops: 917
Adding flit 1345 as NACK at time 91
Additional hops: 923
Adding flit 2074 as NACK at time 91
Additional hops: 934
Adding flit 1353 as NACK at time 91
Reenqueueing errored packet 1725 at time 92
Reenqueueing errored packet 1723 at time 92
Reenqueueing errored packet 1592 at time 92
Additional hops: 941
Adding flit 2112 as NACK at time 92
Additional hops: 949
Adding flit 1292 as NACK at time 92
Additional hops: 957
Adding flit 2214 as NACK at time 92
Additional hops: 961
Adding flit 2747 as NACK at time 92
Additional hops: 972
Adding flit 1178 as NACK at time 92
Reenqueueing errored packet 2685 at time 93
Reenqueueing errored packet 2582 at time 93
Additional hops: 982
Adding flit 1029 as NACK at time 93
Reenqueueing errored packet 3237 at time 94
Reenqueueing errored packet 1876 at time 94
Reenqueueing errored packet 1132 at time 94
Reenqueueing errored packet 1050 at time 94
Reenqueueing errored packet 1536 at time 94
Additional hops: 987
Adding flit 2497 as NACK at time 94
Additional hops: 992
Adding flit 2665 as NACK at time 94
Additional hops: 995
Adding flit 2856 as NACK at time 94
Additional hops: 1000
Adding flit 2076 as NACK at time 94
Reenqueueing errored packet 3178 at time 95
Reenqueueing errored packet 1396 at time 95
Additional hops: 1008
Adding flit 1517 as NACK at time 95
Reenqueueing errored packet 3118 at time 96
Reenqueueing errored packet 3015 at time 96
Reenqueueing errored packet 1493 at time 96
Additional hops: 1016
Adding flit 2822 as NACK at time 96
Additional hops: 1018
Adding flit 3482 as NACK at time 96
Additional hops: 1023
Adding flit 2826 as NACK at time 96
Reenqueueing errored packet 1612 at time 97
Additional hops: 1032
Adding flit 1778 as NACK at time 97
Additional hops: 1042
Adding flit 2028 as NACK at time 98
Additional hops: 1047
Adding flit 2925 as NACK at time 98
Reenqueueing errored packet 1584 at time 99
Reenqueueing errored packet 851 at time 99
Additional hops: 1053
Adding flit 3024 as NACK at time 99
Additional hops: 1062
Adding flit 1888 as NACK at time 99
Reenqueueing errored packet 2251 at time 100
Reenqueueing errored packet 2148 at time 100
Reenqueueing errored packet 1780 at time 100
Reenqueueing errored packet 1431 at time 100
Reenqueueing errored packet 1379 at time 100
Reenqueueing errored packet 382 at time 100
Additional hops: 1067
Adding flit 3126 as NACK at time 100
Additional hops: 1077
Adding flit 1411 as NACK at time 100
Reenqueueing errored packet 3482 at time 101
Reenqueueing errored packet 2856 at time 101
Reenqueueing errored packet 2747 at time 101
Reenqueueing errored packet 2744 at time 101
Reenqueueing errored packet 1798 at time 101
Additional hops: 1084
Adding flit 2235 as NACK at time 101
Additional hops: 1089
Adding flit 3262 as NACK at time 101
Reenqueueing errored packet 1767 at time 102
Additional hops: 1101
Adding flit 1468 as NACK at time 102
Additional hops: 1109
Adding flit 3080 as NACK at time 103
Reenqueueing errored packet 2074 at time 104
Additional hops: 1122
Adding flit 1307 as NACK at time 104
Additional hops: 1124
Adding flit 3821 as NACK at time 104
Additional hops: 1130
Adding flit 3323 as NACK at time 104
Additional hops: 1134
Adding flit 3271 as NACK at time 104
Additional hops: 1154
Adding flit 121 as NACK at time 104
Reenqueueing errored packet 2076 at time 105
Reenqueueing errored packet 2665 at time 105
Reenqueueing errored packet 2497 at time 105
Additional hops: 1165
Adding flit 1182 as NACK at time 105
Additional hops: 1171
Adding flit 2370 as NACK at time 105
Additional hops: 1175
Adding flit 3499 as NACK at time 106
Additional hops: 1180
Adding flit 2914 as NACK at time 106
Additional hops: 1184
Adding flit 3479 as NACK at time 106
Additional hops: 1194
Adding flit 1990 as NACK at time 106
Reenqueueing errored packet 2826 at time 107
Reenqueueing errored packet 2112 at time 107
Reenqueueing errored packet 1685 at time 107
Reenqueueing errored packet 1069 at time 107
Additional hops: 1203
Adding flit 2352 as NACK at time 107
Additional hops: 1206
Adding flit 3939 as NACK at time 107
Additional hops: 1213
Adding flit 3102 as NACK at time 107
Additional hops: 1218
Adding flit 3152 as NACK at time 108
Additional hops: 1222
Adding flit 3551 as NACK at time 108
Reenqueueing errored packet 3821 at time 109
Reenqueueing errored packet 2925 at time 109
Reenqueueing errored packet 2214 at time 109
Reenqueueing errored packet 1292 at time 109
Reenqueueing errored packet 1270 at time 109
Additional hops: 1224
Adding flit 4208 as NACK at time 109
Additional hops: 1235
Adding flit 1527 as NACK at time 109
Reenqueueing errored packet 3126 at time 111
Additional hops: 1243
Adding flit 2627 as NACK at time 111
Reenqueueing errored packet 3262 at time 112
Reenqueueing errored packet 3024 at time 112
Reenqueueing errored packet 1517 at time 112
Reenqueueing errored packet 3271 at time 113
Reenqueueing errored packet 2822 at time 113
Reenqueueing errored packet 1046 at time 113
Additional hops: 1250
Adding flit 2895 as NACK at time 113
Additional hops: 1254
Adding flit 3667 as NACK at time 113
Additional hops: 1262
Adding flit 2581 as NACK at time 113
Reenqueueing errored packet 4208 at time 114
Reenqueueing errored packet 3939 at time 114
Reenqueueing errored packet 1029 at time 114
Reenqueueing errored packet 1353 at time 114
Reenqueueing errored packet 904 at time 114
Reenqueueing errored packet 3479 at time 115
Reenqueueing errored packet 3499 at time 115
Reenqueueing errored packet 1178 at time 115
Additional hops: 1270
Adding flit 2864 as NACK at time 115
Reenqueueing errored packet 2235 at time 116
Reenqueueing errored packet 1778 at time 116
Reenqueueing errored packet 1345 at time 116
Reenqueueing errored packet 1027 at time 116
Additional hops: 1279
Adding flit 1981 as NACK at time 116
Reenqueueing errored packet 3551 at time 117
Reenqueueing errored packet 2914 at time 117
Reenqueueing errored packet 3323 at time 117
Additional hops: 1288
Adding flit 2433 as NACK at time 117
Reenqueueing errored packet 2370 at time 118
Reenqueueing errored packet 1888 at time 118
Additional hops: 1292
Adding flit 3736 as NACK at time 118
Additional hops: 1296
Adding flit 3303 as NACK at time 118
Reenqueueing errored packet 3152 at time 119
Reenqueueing errored packet 2028 at time 119
Additional hops: 1303
Adding flit 3247 as NACK at time 119
Additional hops: 1311
Adding flit 2717 as NACK at time 119
Reenqueueing errored packet 3080 at time 120
Additional hops: 1318
Adding flit 3115 as NACK at time 120
Additional hops: 1323
Adding flit 2585 as NACK at time 120
Additional hops: 1332
Adding flit 1856 as NACK at time 120
Reenqueueing errored packet 1411 at time 121
Reenqueueing errored packet 3667 at time 122
Reenqueueing errored packet 3102 at time 122
Additional hops: 1342
Adding flit 2766 as NACK at time 122
Additional hops: 1350
Adding flit 2561 as NACK at time 122
Additional hops: 1357
Adding flit 3336 as NACK at time 122
Additional hops: 1358
Adding flit 4918 as NACK at time 124
Additional hops: 1362
Adding flit 3748 as NACK at time 124
Additional hops: 1370
Adding flit 3311 as NACK at time 125
Additional hops: 1373
Adding flit 4048 as NACK at time 125
Reenqueueing errored packet 2352 at time 126
Additional hops: 1379
Adding flit 3733 as NACK at time 126
Reenqueueing errored packet 4918 at time 127
Reenqueueing errored packet 3303 at time 127
Reenqueueing errored packet 3736 at time 127
Reenqueueing errored packet 1990 at time 127
Reenqueueing errored packet 1468 at time 127
Additional hops: 1386
Adding flit 3993 as NACK at time 127
Additional hops: 1390
Adding flit 4684 as NACK at time 127
Additional hops: 1397
Adding flit 3642 as NACK at time 127
Additional hops: 1405
Adding flit 2651 as NACK at time 127
Additional hops: 1412
Adding flit 2519 as NACK at time 127
Reenqueueing errored packet 2895 at time 128
Reenqueueing errored packet 2627 at time 128
Reenqueueing errored packet 1182 at time 128
Additional hops: 1417
Adding flit 4118 as NACK at time 128
Additional hops: 1425
Adding flit 2547 as NACK at time 128
Additional hops: 1427
Adding flit 4746 as NACK at time 128
Additional hops: 1432
Adding flit 2982 as NACK at time 128
Additional hops: 1439
Adding flit 3691 as NACK at time 129
Additional hops: 1448
Adding flit 2126 as NACK at time 129
Additional hops: 1454
Adding flit 3159 as NACK at time 129
Additional hops: 1464
Adding flit 1968 as NACK at time 129
Reenqueueing errored packet 2581 at time 130
Additional hops: 1473
Adding flit 2012 as NACK at time 130
Additional hops: 1478
Adding flit 3717 as NACK at time 130
Additional hops: 1486
Adding flit 2622 as NACK at time 130
Additional hops: 1498
Adding flit 2225 as NACK at time 130
Reenqueueing errored packet 2585 at time 131
Reenqueueing errored packet 1307 at time 131
Additional hops: 1507
Adding flit 3365 as NACK at time 131
Additional hops: 1512
Adding flit 4243 as NACK at time 131
Additional hops: 1515
Adding flit 4229 as NACK at time 131
Reenqueueing errored packet 4048 at time 132
Reenqueueing errored packet 2864 at time 132
Reenqueueing errored packet 1527 at time 132
Additional hops: 1527
Adding flit 2302 as NACK at time 132
Additional hops: 1535
Adding flit 2832 as NACK at time 132
Reenqueueing errored packet 4746 at time 133
Reenqueueing errored packet 3748 at time 133
Additional hops: 1542
Adding flit 2939 as NACK at time 133
Additional hops: 1551
Adding flit 2057 as NACK at time 133
Reenqueueing errored packet 3247 at time 134
Additional hops: 1559
Adding flit 3082 as NACK at time 134
Additional hops: 1566
Adding flit 3485 as NACK at time 134
Additional hops: 1575
Adding flit 3137 as NACK at time 134
Reenqueueing errored packet 3115 at time 135
Reenqueueing errored packet 1981 at time 135
Additional hops: 1583
Adding flit 2427 as NACK at time 135
Reenqueueing errored packet 4684 at time 136
Reenqueueing errored packet 2717 at time 136
Reenqueueing errored packet 2433 at time 136
Additional hops: 1595
Adding flit 787 as NACK at time 136
Reenqueueing errored packet 3336 at time 137
Additional hops: 1598
Adding flit 4272 as NACK at time 137
Additional hops: 1610
Adding flit 2350 as NACK at time 137
Additional hops: 1615
Adding flit 4740 as NACK at time 137
Reenqueueing errored packet 4229 at time 138
Reenqueueing errored packet 2982 at time 139
Reenqueueing errored packet 4118 at time 139
Reenqueueing errored packet 3733 at time 139
Reenqueueing errored packet 2561 at time 139
Reenqueueing errored packet 1856 at time 139
Additional hops: 1623
Adding flit 3532 as NACK at time 139
Additional hops: 1634
Adding flit 1919 as NACK at time 139
Additional hops: 1640
Adding flit 4293 as NACK at time 140
Additional hops: 1658
Adding flit 435 as NACK at time 140
Additional hops: 1661
Adding flit 5039 as NACK at time 140
Reenqueueing errored packet 3717 at time 141
Additional hops: 1669
Adding flit 4170 as NACK at time 141
Additional hops: 1675
Adding flit 4219 as NACK at time 141
Additional hops: 1678
Adding flit 5108 as NACK at time 141
Reenqueueing errored packet 4243 at time 142
Reenqueueing errored packet 3159 at time 142
Reenqueueing errored packet 2519 at time 142
Reenqueueing errored packet 3642 at time 142
Reenqueueing errored packet 3993 at time 142
Reenqueueing errored packet 3311 at time 142
Additional hops: 1682
Adding flit 5237 as NACK at time 142
Additional hops: 1688
Adding flit 4230 as NACK at time 142
Reenqueueing errored packet 2766 at time 143
Additional hops: 1693
Adding flit 3544 as NACK at time 143
Additional hops: 1702
Adding flit 2672 as NACK at time 143
Additional hops: 1711
Adding flit 3709 as NACK at time 143
Reenqueueing errored packet 4272 at time 144
Reenqueueing errored packet 3691 at time 144
Reenqueueing errored packet 2651 at time 144
Additional hops: 1717
Adding flit 4381 as NACK at time 144
Additional hops: 1721
Adding flit 3291 as NACK at time 144
Additional hops: 1726
Adding flit 4443 as NACK at time 144
Reenqueueing errored packet 2547 at time 145
Reenqueueing errored packet 121 at time 145
Additional hops: 1730
Adding flit 4396 as NACK at time 145
Additional hops: 1738
Adding flit 2241 as NACK at time 145
Additional hops: 1743
Adding flit 4477 as NACK at time 146
Additional hops: 1750
Adding flit 3703 as NACK at time 146
Additional hops: 1755
Adding flit 5022 as NACK at time 146
Reenqueueing errored packet 5039 at time 147
Reenqueueing errored packet 2622 at time 147
Additional hops: 1760
Adding flit 4216 as NACK at time 147
Reenqueueing errored packet 5108 at time 148
Reenqueueing errored packet 4740 at time 148
Reenqueueing errored packet 2939 at time 148
Reenqueueing errored packet 2126 at time 148
Additional hops: 1763
Adding flit 5566 as NACK at time 148
Additional hops: 1768
Adding flit 4067 as NACK at time 148
Additional hops: 1773
Adding flit 4992 as NACK at time 148
Reenqueueing errored packet 3485 at time 149
Reenqueueing errored packet 2832 at time 149
Reenqueueing errored packet 2012 at time 149
Additional hops: 1787
Adding flit 2148 as NACK at time 149
Additional hops: 1798
Adding flit 2993 as NACK at time 149
Additional hops: 1808
Adding flit 3775 as NACK at time 149
Reenqueueing errored packet 3365 at time 150
Reenqueueing errored packet 1968 at time 150
Additional hops: 1810
Adding flit 5744 as NACK at time 150
Additional hops: 1818
Adding flit 3699 as NACK at time 150
Reenqueueing errored packet 5237 at time 151
Reenqueueing errored packet 3082 at time 151
Additional hops: 1822
Adding flit 4569 as NACK at time 151
Additional hops: 1830
Adding flit 2873 as NACK at time 151
Additional hops: 1844
Adding flit 572 as NACK at time 151
Additional hops: 1851
Adding flit 4993 as NACK at time 151
Additional hops: 1858
Adding flit 3360 as NACK at time 151
Reenqueueing errored packet 2427 at time 152
Reenqueueing errored packet 2057 at time 152
Additional hops: 1867
Adding flit 3394 as NACK at time 152
Additional hops: 1877
Adding flit 3186 as NACK at time 152
Additional hops: 1886
Adding flit 2820 as NACK at time 152
Additional hops: 1892
Adding flit 3721 as NACK at time 152
Reenqueueing errored packet 3291 at time 153
Reenqueueing errored packet 4293 at time 153
Reenqueueing errored packet 3137 at time 153
Additional hops: 1896
Adding flit 5072 as NACK at time 153
Reenqueueing errored packet 4396 at time 154
Reenqueueing errored packet 3544 at time 154
Reenqueueing errored packet 4219 at time 154
Additional hops: 1903
Adding flit 4989 as NACK at time 154
Reenqueueing errored packet 5744 at time 155
Reenqueueing errored packet 5566 at time 155
Reenqueueing errored packet 4443 at time 155
Reenqueueing errored packet 4230 at time 155
Reenqueueing errored packet 2225 at time 155
Additional hops: 1911
Adding flit 3736 as NACK at time 155
Additional hops: 1915
Adding flit 4911 as NACK at time 155
Additional hops: 1920
Adding flit 4939 as NACK at time 155
Additional hops: 1926
Adding flit 3533 as NACK at time 155
Reenqueueing errored packet 3532 at time 156
Reenqueueing errored packet 5022 at time 157
Reenqueueing errored packet 4477 at time 157
Reenqueueing errored packet 4381 at time 157
Reenqueueing errored packet 2302 at time 157
Additional hops: 1931
Adding flit 4104 as NACK at time 157
Additional hops: 1939
Adding flit 3619 as NACK at time 157
Reenqueueing errored packet 4216 at time 158
Reenqueueing errored packet 4170 at time 158
Reenqueueing errored packet 4992 at time 159
Reenqueueing errored packet 4067 at time 159
Additional hops: 1946
Adding flit 3207 as NACK at time 159
Additional hops: 1952
Adding flit 3806 as NACK at time 159
Additional hops: 1958
Adding flit 4693 as NACK at time 159
Reenqueueing errored packet 4569 at time 160
Additional hops: 1965
Adding flit 3726 as NACK at time 160
Additional hops: 1977
Adding flit 2708 as NACK at time 160
Reenqueueing errored packet 3703 at time 161
Reenqueueing errored packet 787 at time 161
Additional hops: 1984
Adding flit 3918 as NACK at time 161
Additional hops: 1996
Adding flit 2074 as NACK at time 161
Additional hops: 2008
Adding flit 2559 as NACK at time 161
Reenqueueing errored packet 5072 at time 162
Reenqueueing errored packet 2241 at time 162
Reenqueueing errored packet 3709 at time 162
Reenqueueing errored packet 2672 at time 162
Reenqueueing errored packet 1919 at time 162
Reenqueueing errored packet 2350 at time 162
Additional hops: 2016
Adding flit 3429 as NACK at time 162
Additional hops: 2023
Adding flit 2958 as NACK at time 162
Additional hops: 2030
Adding flit 4608 as NACK at time 162
Additional hops: 2037
Adding flit 5408 as NACK at time 163
Reenqueueing errored packet 4911 at time 164
Additional hops: 2043
Adding flit 5387 as NACK at time 164
Additional hops: 2052
Adding flit 2452 as NACK at time 164
Additional hops: 2057
Adding flit 5338 as NACK at time 164
Reenqueueing errored packet 3721 at time 165
Additional hops: 2063
Adding flit 3316 as NACK at time 165
Additional hops: 2070
Adding flit 2962 as NACK at time 165
Reenqueueing errored packet 4939 at time 166
Reenqueueing errored packet 3360 at time 166
Reenqueueing errored packet 4993 at time 166
Additional hops: 2076
Adding flit 4521 as NACK at time 166
Additional hops: 2084
Adding flit 3762 as NACK at time 166
Additional hops: 2095
Adding flit 3378 as NACK at time 166
Reenqueueing errored packet 3699 at time 167
Additional hops: 2106
Adding flit 3430 as NACK at time 167
Additional hops: 2109
Adding flit 6502 as NACK at time 167
Reenqueueing errored packet 4104 at time 168
Reenqueueing errored packet 3533 at time 168
Reenqueueing errored packet 2873 at time 168
Additional hops: 2116
Adding flit 4159 as NACK at time 168
Additional hops: 2118
Adding flit 6610 as NACK at time 168
Additional hops: 2127
Adding flit 3521 as NACK at time 168
Reenqueueing errored packet 4989 at time 169
Additional hops: 2133
Adding flit 6180 as NACK at time 169
Additional hops: 2138
Adding flit 6255 as NACK at time 169
Reenqueueing errored packet 3775 at time 170
Additional hops: 2143
Adding flit 4317 as NACK at time 170
Additional hops: 2152
Adding flit 3566 as NACK at time 170
Additional hops: 2160
Adding flit 4111 as NACK at time 170
Additional hops: 2164
Adding flit 6273 as NACK at time 170
Additional hops: 2168
Adding flit 5541 as NACK at time 170
Reenqueueing errored packet 2820 at time 171
Reenqueueing errored packet 3394 at time 171
Additional hops: 2177
Adding flit 4009 as NACK at time 171
Additional hops: 2183
Adding flit 5139 as NACK at time 171
Additional hops: 2189
Adding flit 5859 as NACK at time 171
Reenqueueing errored packet 4693 at time 172
Reenqueueing errored packet 3806 at time 172
Reenqueueing errored packet 3736 at time 172
Reenqueueing errored packet 2993 at time 172
Additional hops: 2197
Adding flit 5192 as NACK at time 172
Reenqueueing errored packet 6610 at time 173
Reenqueueing errored packet 3186 at time 173
Additional hops: 2200
Adding flit 5293 as NACK at time 173
Additional hops: 2208
Adding flit 4604 as NACK at time 173
Reenqueueing errored packet 6502 at time 174
Reenqueueing errored packet 3207 at time 174
Reenqueueing errored packet 3619 at time 174
Reenqueueing errored packet 5338 at time 175
Reenqueueing errored packet 3726 at time 175
Reenqueueing errored packet 3918 at time 176
Additional hops: 2217
Adding flit 4112 as NACK at time 176
Additional hops: 2228
Adding flit 3921 as NACK at time 176
Additional hops: 2238
Adding flit 3319 as NACK at time 176
Additional hops: 2243
Adding flit 5484 as NACK at time 176
Additional hops: 2253
Adding flit 2535 as NACK at time 176
Reenqueueing errored packet 5387 at time 177
Reenqueueing errored packet 4608 at time 177
Reenqueueing errored packet 2958 at time 177
Reenqueueing errored packet 435 at time 177
Additional hops: 2262
Adding flit 3735 as NACK at time 177
Additional hops: 2265
Adding flit 5365 as NACK at time 177
Additional hops: 2273
Adding flit 4610 as NACK at time 177
Reenqueueing errored packet 3316 at time 178
Reenqueueing errored packet 5408 at time 178
Reenqueueing errored packet 2148 at time 178
Additional hops: 2277
Adding flit 6058 as NACK at time 178
Additional hops: 2282
Adding flit 6661 as NACK at time 178
Reenqueueing errored packet 5541 at time 179
Reenqueueing errored packet 6273 at time 179
Reenqueueing errored packet 4521 at time 179
Reenqueueing errored packet 3429 at time 179
Additional hops: 2290
Adding flit 3807 as NACK at time 179
Additional hops: 2298
Adding flit 5137 as NACK at time 179
Reenqueueing errored packet 5293 at time 180
Reenqueueing errored packet 6255 at time 180
Reenqueueing errored packet 2962 at time 180
Reenqueueing errored packet 572 at time 180
Reenqueueing errored packet 4317 at time 181
Additional hops: 2303
Adding flit 6196 as NACK at time 181
Reenqueueing errored packet 6180 at time 182
Additional hops: 2306
Adding flit 7019 as NACK at time 182
Additional hops: 2313
Adding flit 4042 as NACK at time 182
Reenqueueing errored packet 4159 at time 183
Reenqueueing errored packet 3762 at time 183
Reenqueueing errored packet 2452 at time 183
Additional hops: 2322
Adding flit 5459 as NACK at time 183
Additional hops: 2328
Adding flit 4653 as NACK at time 183
Additional hops: 2334
Adding flit 4827 as NACK at time 183
Reenqueueing errored packet 5365 at time 184
Reenqueueing errored packet 5859 at time 184
Reenqueueing errored packet 5139 at time 184
Additional hops: 2338
Adding flit 6610 as NACK at time 184
Reenqueueing errored packet 2708 at time 185
Additional hops: 2344
Adding flit 4735 as NACK at time 185
Additional hops: 2354
Adding flit 3497 as NACK at time 185
Additional hops: 2364
Adding flit 3049 as NACK at time 185
Reenqueueing errored packet 2559 at time 186
Reenqueueing errored packet 2074 at time 186
Additional hops: 2369
Adding flit 5786 as NACK at time 186
Reenqueueing errored packet 6058 at time 187
Reenqueueing errored packet 5484 at time 187
Reenqueueing errored packet 4111 at time 187
Reenqueueing errored packet 3521 at time 187
Additional hops: 2373
Adding flit 6304 as NACK at time 187
Additional hops: 2379
Adding flit 6154 as NACK at time 188
Reenqueueing errored packet 7019 at time 189
Reenqueueing errored packet 6661 at time 189
Reenqueueing errored packet 5192 at time 189
Reenqueueing errored packet 3566 at time 189
Reenqueueing errored packet 3378 at time 189
Additional hops: 2380
Adding flit 7676 as NACK at time 189
Reenqueueing errored packet 4604 at time 190
Reenqueueing errored packet 4009 at time 190
Reenqueueing errored packet 3430 at time 190
Additional hops: 2385
Adding flit 6014 as NACK at time 191
Additional hops: 2388
Adding flit 7473 as NACK at time 191
Reenqueueing errored packet 7676 at time 192
Reenqueueing errored packet 6196 at time 192
Additional hops: 2395
Adding flit 4872 as NACK at time 192
Additional hops: 2400
Adding flit 5689 as NACK at time 192
Additional hops: 2408
Adding flit 4721 as NACK at time 192
Reenqueueing errored packet 6610 at time 193
Additional hops: 2416
Adding flit 5175 as NACK at time 193
Additional hops: 2420
Adding flit 6868 as NACK at time 193
Reenqueueing errored packet 4610 at time 194
Additional hops: 2426
Adding flit 5373 as NACK at time 194
Additional hops: 2431
Adding flit 7192 as NACK at time 194
Additional hops: 2442
Adding flit 3576 as NACK at time 194
Reenqueueing errored packet 4112 at time 195
Reenqueueing errored packet 6304 at time 196
Reenqueueing errored packet 4827 at time 196
Reenqueueing errored packet 4653 at time 196
Reenqueueing errored packet 5137 at time 196
Reenqueueing errored packet 3807 at time 196
Reenqueueing errored packet 3735 at time 196
Additional hops: 2448
Adding flit 5240 as NACK at time 196
Additional hops: 2454
Adding flit 6077 as NACK at time 196
Additional hops: 2466
Adding flit 2370 as NACK at time 196
Additional hops: 2476
Adding flit 4771 as NACK at time 196
Reenqueueing errored packet 5786 at time 197
Reenqueueing errored packet 4042 at time 197
Reenqueueing errored packet 2535 at time 197
Reenqueueing errored packet 3319 at time 197
Additional hops: 2485
Adding flit 5170 as NACK at time 197
Additional hops: 2501
Adding flit 2864 as NACK at time 197
Additional hops: 2509
Adding flit 5650 as NACK at time 197
Reenqueueing errored packet 7473 at time 198
Reenqueueing errored packet 4735 at time 198
Additional hops: 2518
Adding flit 3831 as NACK at time 198
Additional hops: 2523
Adding flit 7164 as NACK at time 198
Additional hops: 2528
Adding flit 5067 as NACK at time 198
Reenqueueing errored packet 3921 at time 199
Additional hops: 2535
Adding flit 4866 as NACK at time 199
Additional hops: 2545
Adding flit 4626 as NACK at time 199
Additional hops: 2550
Adding flit 4690 as NACK at time 199
Additional hops: 2555
Adding flit 7182 as NACK at time 199
Additional hops: 2561
Adding flit 6952 as NACK at time 200
Reenqueueing errored packet 6154 at time 201
Additional hops: 2567
Adding flit 6163 as NACK at time 201
Reenqueueing errored packet 6868 at time 202
Reenqueueing errored packet 6014 at time 202
Reenqueueing errored packet 5459 at time 202
Additional hops: 2580
Adding flit 3611 as NACK at time 202
Additional hops: 2594
Adding flit 3691 as NACK at time 202
Additional hops: 2601
Adding flit 5557 as NACK at time 202
Reenqueueing errored packet 5689 at time 203
Additional hops: 2607
Adding flit 7370 as NACK at time 203
Additional hops: 2614
Adding flit 5001 as NACK at time 204
Reenqueueing errored packet 7192 at time 205
Additional hops: 2617
Adding flit 7254 as NACK at time 205
Additional hops: 2624
Adding flit 6367 as NACK at time 205
Reenqueueing errored packet 3049 at time 206
Reenqueueing errored packet 3497 at time 206
Additional hops: 2628
Adding flit 5206 as NACK at time 206
Additional hops: 2633
Adding flit 6582 as NACK at time 206
Reenqueueing errored packet 5373 at time 207
Reenqueueing errored packet 4872 at time 207
Additional hops: 2638
Adding flit 6917 as NACK at time 207
Additional hops: 2643
Adding flit 5296 as NACK at time 207
Additional hops: 2647
Adding flit 6351 as NACK at time 208
Additional hops: 2656
Adding flit 4675 as NACK at time 208
Reenqueueing errored packet 5067 at time 209
Reenqueueing errored packet 7164 at time 209
Reenqueueing errored packet 6077 at time 209
Reenqueueing errored packet 5240 at time 209
Reenqueueing errored packet 4721 at time 209
Additional hops: 2660
Adding flit 7171 as NACK at time 209
Additional hops: 2669
Adding flit 4218 as NACK at time 209
Additional hops: 2678
Adding flit 3455 as NACK at time 209
Reenqueueing errored packet 7182 at time 210
Reenqueueing errored packet 4690 at time 210
Reenqueueing errored packet 5175 at time 210
Additional hops: 2685
Adding flit 5675 as NACK at time 210
Additional hops: 2689
Adding flit 7716 as NACK at time 211
Reenqueueing errored packet 7254 at time 212
Additional hops: 2697
Adding flit 4711 as NACK at time 212
Reenqueueing errored packet 6952 at time 213
Additional hops: 2700
Adding flit 8399 as NACK at time 213
Additional hops: 2714
Adding flit 3192 as NACK at time 213
Additional hops: 2738
Adding flit 265 as NACK at time 213
Additional hops: 2745
Adding flit 4912 as NACK at time 213
Additional hops: 2755
Adding flit 4976 as NACK at time 213
Reenqueueing errored packet 6163 at time 214
Reenqueueing errored packet 4866 at time 214
Reenqueueing errored packet 5650 at time 214
Additional hops: 2765
Adding flit 4200 as NACK at time 214
Reenqueueing errored packet 5206 at time 215
Additional hops: 2772
Adding flit 5208 as NACK at time 215
Reenqueueing errored packet 7370 at time 216
Reenqueueing errored packet 5170 at time 216
Additional hops: 2777
Adding flit 6858 as NACK at time 216
Additional hops: 2782
Adding flit 6083 as NACK at time 216
Reenqueueing errored packet 6351 at time 217
Reenqueueing errored packet 6582 at time 217
Reenqueueing errored packet 5557 at time 217
Reenqueueing errored packet 3831 at time 217
Reenqueueing errored packet 4771 at time 217
Reenqueueing errored packet 3576 at time 217
Additional hops: 2791
Adding flit 6029 as NACK at time 217
Additional hops: 2802
Adding flit 3757 as NACK at time 217
Reenqueueing errored packet 7171 at time 218
Reenqueueing errored packet 5296 at time 218
Reenqueueing errored packet 6917 at time 218
Additional hops: 2803
Adding flit 8872 as NACK at time 218
Additional hops: 2808
Adding flit 7487 as NACK at time 218
Additional hops: 2816
Adding flit 5505 as NACK at time 218
Reenqueueing errored packet 5001 at time 219
Additional hops: 2824
Adding flit 5435 as NACK at time 219
Additional hops: 2832
Adding flit 4400 as NACK at time 219
Reenqueueing errored packet 8399 at time 220
Reenqueueing errored packet 7716 at time 220
Reenqueueing errored packet 6367 at time 220
Reenqueueing errored packet 4626 at time 220
Additional hops: 2837
Adding flit 7308 as NACK at time 220
Additional hops: 2842
Adding flit 7611 as NACK at time 220
Additional hops: 2850
Adding flit 4359 as NACK at time 220
Additional hops: 2857
Adding flit 5638 as NACK at time 220
Reenqueueing errored packet 8872 at time 221
Reenqueueing errored packet 2370 at time 221
Additional hops: 2863
Adding flit 7586 as NACK at time 221
Additional hops: 2871
Adding flit 4864 as NACK at time 221
Additional hops: 2873
Adding flit 8827 as NACK at time 221
Additional hops: 2879
Adding flit 7456 as NACK at time 221
Additional hops: 2890
Adding flit 5121 as NACK at time 222
Additional hops: 2894
Adding flit 8352 as NACK at time 222
Additional hops: 2897
Adding flit 8041 as NACK at time 223
Additional hops: 2906
Adding flit 4202 as NACK at time 223
Additional hops: 2913
Adding flit 5044 as NACK at time 224
Additional hops: 2920
Adding flit 6272 as NACK at time 224
Additional hops: 2933
Adding flit 3881 as NACK at time 224
Reenqueueing errored packet 5675 at time 225
Additional hops: 2948
Adding flit 3920 as NACK at time 225
Additional hops: 2952
Adding flit 7630 as NACK at time 225
Reenqueueing errored packet 8827 at time 226
Additional hops: 2963
Adding flit 4357 as NACK at time 226
Additional hops: 2972
Adding flit 4482 as NACK at time 226
Additional hops: 2978
Adding flit 6827 as NACK at time 226
Reenqueueing errored packet 6083 at time 227
Reenqueueing errored packet 6858 at time 227
Reenqueueing errored packet 4675 at time 227
Additional hops: 2982
Adding flit 8267 as NACK at time 227
Additional hops: 2985
Adding flit 9010 as NACK at time 227
Reenqueueing errored packet 4912 at time 228
Reenqueueing errored packet 3455 at time 228
Reenqueueing errored packet 4218 at time 228
Additional hops: 2988
Adding flit 8825 as NACK at time 228
Additional hops: 2995
Adding flit 5364 as NACK at time 228
Additional hops: 3005
Adding flit 7182 as NACK at time 228
Reenqueueing errored packet 7487 at time 229
Reenqueueing errored packet 4711 at time 229
Reenqueueing errored packet 3611 at time 229
Additional hops: 3016
Adding flit 4632 as NACK at time 229
Reenqueueing errored packet 8041 at time 230
Reenqueueing errored packet 5208 at time 230
Reenqueueing errored packet 2864 at time 230
Additional hops: 3021
Adding flit 8275 as NACK at time 230
Additional hops: 3030
Adding flit 4640 as NACK at time 230
Additional hops: 3036
Adding flit 6179 as NACK at time 230
Reenqueueing errored packet 8352 at time 231
Reenqueueing errored packet 7611 at time 231
Reenqueueing errored packet 7308 at time 231
Reenqueueing errored packet 3691 at time 231
Additional hops: 3041
Adding flit 5805 as NACK at time 231
Additional hops: 3044
Adding flit 8842 as NACK at time 231
Additional hops: 3049
Adding flit 6633 as NACK at time 233
Additional hops: 3056
Adding flit 5789 as NACK at time 233
Reenqueueing errored packet 9010 at time 234
Reenqueueing errored packet 7630 at time 234
Reenqueueing errored packet 7456 at time 234
Reenqueueing errored packet 7586 at time 234
Reenqueueing errored packet 4976 at time 234
Additional hops: 3059
Adding flit 8874 as NACK at time 234
Additional hops: 3068
Adding flit 5292 as NACK at time 234
Reenqueueing errored packet 8825 at time 235
Reenqueueing errored packet 5638 at time 235
Reenqueueing errored packet 5505 at time 235
Reenqueueing errored packet 4200 at time 235
Additional hops: 3074
Adding flit 8646 as NACK at time 235
Reenqueueing errored packet 8267 at time 236
Reenqueueing errored packet 4400 at time 236
Reenqueueing errored packet 5435 at time 236
Reenqueueing errored packet 6029 at time 236
Additional hops: 3080
Adding flit 7500 as NACK at time 236
Additional hops: 3081
Adding flit 9637 as NACK at time 236
Additional hops: 3093
Adding flit 3723 as NACK at time 236
Reenqueueing errored packet 4359 at time 237
Additional hops: 3101
Adding flit 5729 as NACK at time 237
Additional hops: 3109
Adding flit 4687 as NACK at time 237
Additional hops: 3117
Adding flit 5878 as NACK at time 237
Additional hops: 3124
Adding flit 7246 as NACK at time 237
Additional hops: 3130
Adding flit 7668 as NACK at time 237
Reenqueueing errored packet 8842 at time 238
Reenqueueing errored packet 4864 at time 238
Reenqueueing errored packet 9637 at time 239
Reenqueueing errored packet 6827 at time 239
Reenqueueing errored packet 6272 at time 239
Reenqueueing errored packet 5044 at time 239
Additional hops: 3139
Adding flit 4817 as NACK at time 239
Reenqueueing errored packet 3757 at time 240
Additional hops: 3150
Adding flit 4751 as NACK at time 240
Additional hops: 3156
Adding flit 6535 as NACK at time 240
Reenqueueing errored packet 8874 at time 241
Reenqueueing errored packet 8275 at time 241
Additional hops: 3161
Adding flit 8628 as NACK at time 241
Reenqueueing errored packet 5805 at time 242
Reenqueueing errored packet 4202 at time 242
Reenqueueing errored packet 3192 at time 242
Additional hops: 3172
Adding flit 3915 as NACK at time 242
Additional hops: 3180
Adding flit 5254 as NACK at time 242
Reenqueueing errored packet 6179 at time 243
Reenqueueing errored packet 5364 at time 243
Reenqueueing errored packet 6633 at time 244
Additional hops: 3190
Adding flit 7764 as NACK at time 244
Additional hops: 3199
Adding flit 5453 as NACK at time 244
Additional hops: 3202
Adding flit 7820 as NACK at time 244
Additional hops: 3212
Adding flit 4297 as NACK at time 244
Additional hops: 3219
Adding flit 7117 as NACK at time 244
Additional hops: 3224
Adding flit 7963 as NACK at time 244
Additional hops: 3226
Adding flit 9637 as NACK at time 244
Reenqueueing errored packet 4482 at time 245
Reenqueueing errored packet 5121 at time 245
Additional hops: 3235
Adding flit 7315 as NACK at time 245
Additional hops: 3246
Adding flit 4109 as NACK at time 245
Additional hops: 3250
Adding flit 8675 as NACK at time 247
Additional hops: 3253
Adding flit 8119 as NACK at time 247
Reenqueueing errored packet 8646 at time 248
Reenqueueing errored packet 5789 at time 248
Additional hops: 3262
Adding flit 7646 as NACK at time 248
Additional hops: 3267
Adding flit 9417 as NACK at time 248
Additional hops: 3276
Adding flit 5943 as NACK at time 248
Reenqueueing errored packet 9637 at time 249
Reenqueueing errored packet 7500 at time 249
Reenqueueing errored packet 4640 at time 249
Reenqueueing errored packet 7182 at time 249
Reenqueueing errored packet 4357 at time 249
Additional hops: 3280
Adding flit 9710 as NACK at time 249
Additional hops: 3288
Adding flit 5563 as NACK at time 249
Additional hops: 3294
Adding flit 6024 as NACK at time 249
Additional hops: 3301
Adding flit 6778 as NACK at time 249
Reenqueueing errored packet 7668 at time 250
Additional hops: 3309
Adding flit 5667 as NACK at time 250
Additional hops: 3318
Adding flit 5494 as NACK at time 250
Additional hops: 3323
Adding flit 6790 as NACK at time 250
Additional hops: 3330
Adding flit 5877 as NACK at time 250
Additional hops: 3338
Adding flit 7855 as NACK at time 250
Additional hops: 3342
Adding flit 9511 as NACK at time 250
Reenqueueing errored packet 7820 at time 251
Reenqueueing errored packet 3881 at time 251
Additional hops: 3348
Adding flit 6240 as NACK at time 251
Additional hops: 3351
Adding flit 9197 as NACK at time 251
Reenqueueing errored packet 8628 at time 252
Reenqueueing errored packet 7246 at time 252
Reenqueueing errored packet 4632 at time 252
Additional hops: 3358
Adding flit 6888 as NACK at time 252
Additional hops: 3368
Adding flit 4351 as NACK at time 252
Additional hops: 3376
Adding flit 5813 as NACK at time 252
Additional hops: 3380
Adding flit 7965 as NACK at time 252
Additional hops: 3392
Adding flit 6154 as NACK at time 252
Reenqueueing errored packet 6535 at time 253
Reenqueueing errored packet 5292 at time 253
Reenqueueing errored packet 8119 at time 254
Reenqueueing errored packet 5878 at time 254
Reenqueueing errored packet 4687 at time 254
Reenqueueing errored packet 5729 at time 254
Additional hops: 3401
Adding flit 8171 as NACK at time 254
Additional hops: 3407
Adding flit 9721 as NACK at time 254
Reenqueueing errored packet 7963 at time 255
Additional hops: 3431
Adding flit 904 as NACK at time 255
Reenqueueing errored packet 8675 at time 256
Reenqueueing errored packet 3920 at time 256
Additional hops: 3434
Adding flit 8506 as NACK at time 256
Additional hops: 3446
Adding flit 4474 as NACK at time 256
Additional hops: 3449
Adding flit 10266 as NACK at time 257
Additional hops: 3456
Adding flit 6102 as NACK at time 257
Additional hops: 3461
Adding flit 8752 as NACK at time 257
Additional hops: 3466
Adding flit 8213 as NACK at time 257
Additional hops: 3474
Adding flit 8028 as NACK at time 257
Reenqueueing errored packet 9197 at time 258
Reenqueueing errored packet 9710 at time 258
Reenqueueing errored packet 4817 at time 258
Additional hops: 3483
Adding flit 7381 as NACK at time 258
Reenqueueing errored packet 9511 at time 259
Reenqueueing errored packet 9417 at time 259
Reenqueueing errored packet 7117 at time 259
Reenqueueing errored packet 5254 at time 259
Additional hops: 3492
Adding flit 5220 as NACK at time 259
Additional hops: 3497
Adding flit 9256 as NACK at time 260
Additional hops: 3504
Adding flit 6398 as NACK at time 260
Additional hops: 3506
Adding flit 9427 as NACK at time 260
Reenqueueing errored packet 7965 at time 261
Reenqueueing errored packet 6790 at time 261
Reenqueueing errored packet 3723 at time 261
Additional hops: 3512
Adding flit 8591 as NACK at time 261
Additional hops: 3514
Adding flit 10514 as NACK at time 261
Reenqueueing errored packet 6024 at time 262
Reenqueueing errored packet 265 at time 262
Additional hops: 3524
Adding flit 7648 as NACK at time 262
Additional hops: 3532
Adding flit 7732 as NACK at time 262
Additional hops: 3540
Adding flit 6449 as NACK at time 262
Additional hops: 3544
Adding flit 10293 as NACK at time 262
Additional hops: 3554
Adding flit 6642 as NACK at time 262
Reenqueueing errored packet 8506 at time 263
Reenqueueing errored packet 5453 at time 263
Reenqueueing errored packet 4751 at time 263
Reenqueueing errored packet 10266 at time 264
Reenqueueing errored packet 6240 at time 264
Reenqueueing errored packet 6778 at time 264
Additional hops: 3562
Adding flit 6299 as NACK at time 264
Additional hops: 3567
Adding flit 6953 as NACK at time 264
Reenqueueing errored packet 9427 at time 265
Reenqueueing errored packet 5877 at time 265
Reenqueueing errored packet 4297 at time 265
Reenqueueing errored packet 7764 at time 265
Reenqueueing errored packet 3915 at time 265
Additional hops: 3569
Adding flit 10707 as NACK at time 265
Reenqueueing errored packet 10514 at time 266
Reenqueueing errored packet 5563 at time 266
Additional hops: 3579
Adding flit 7852 as NACK at time 266
Additional hops: 3581
Adding flit 10794 as NACK at time 266
Reenqueueing errored packet 9721 at time 267
Reenqueueing errored packet 6888 at time 267
Reenqueueing errored packet 7855 at time 267
Reenqueueing errored packet 5667 at time 267
Reenqueueing errored packet 5943 at time 267
Reenqueueing errored packet 7646 at time 267
Additional hops: 3587
Adding flit 9425 as NACK at time 267
Additional hops: 3598
Adding flit 5250 as NACK at time 267
Additional hops: 3608
Adding flit 6005 as NACK at time 267
Reenqueueing errored packet 8213 at time 268
Reenqueueing errored packet 8752 at time 268
Reenqueueing errored packet 4109 at time 268
Reenqueueing errored packet 5813 at time 269
Reenqueueing errored packet 5494 at time 269
Additional hops: 3617
Adding flit 5419 as NACK at time 269
Additional hops: 3635
Adding flit 1981 as NACK at time 269
Additional hops: 3644
Adding flit 6742 as NACK at time 269
Reenqueueing errored packet 10707 at time 270
Additional hops: 3648
Adding flit 10538 as NACK at time 270
Additional hops: 3658
Adding flit 5065 as NACK at time 270
Reenqueueing errored packet 10794 at time 271
Reenqueueing errored packet 10293 at time 271
Reenqueueing errored packet 9256 at time 271
Additional hops: 3666
Adding flit 8940 as NACK at time 271
Additional hops: 3671
Adding flit 8554 as NACK at time 271
Additional hops: 3679
Adding flit 8267 as NACK at time 271
Reenqueueing errored packet 6102 at time 272
Additional hops: 3684
Adding flit 6176 as NACK at time 272
Additional hops: 3689
Adding flit 9030 as NACK at time 272
Additional hops: 3696
Adding flit 7324 as NACK at time 272
Reenqueueing errored packet 8171 at time 273
Reenqueueing errored packet 4351 at time 273
Additional hops: 3704
Adding flit 6185 as NACK at time 273
Additional hops: 3712
Adding flit 6498 as NACK at time 273
Additional hops: 3719
Adding flit 6812 as NACK at time 273
Additional hops: 3722
Adding flit 9978 as NACK at time 273
Reenqueueing errored packet 8591 at time 274
Reenqueueing errored packet 8028 at time 274
Additional hops: 3730
Adding flit 5958 as NACK at time 274
Reenqueueing errored packet 6953 at time 275
Reenqueueing errored packet 6398 at time 275
Additional hops: 3736
Adding flit 9179 as NACK at time 275
Additional hops: 3747
Adding flit 6675 as NACK at time 275
Additional hops: 3757
Adding flit 4669 as NACK at time 275
Additional hops: 3764
Adding flit 6863 as NACK at time 275
Additional hops: 3774
Adding flit 5674 as NACK at time 276
Additional hops: 3780
Adding flit 6964 as NACK at time 276
Additional hops: 3785
Adding flit 7175 as NACK at time 276
Additional hops: 3795
Adding flit 6895 as NACK at time 276
Reenqueueing errored packet 7381 at time 277
Reenqueueing errored packet 6154 at time 277
Additional hops: 3800
Adding flit 7687 as NACK at time 277
Reenqueueing errored packet 5220 at time 278
Reenqueueing errored packet 10538 at time 279
Reenqueueing errored packet 6449 at time 279
Reenqueueing errored packet 7732 at time 279
Reenqueueing errored packet 9978 at time 280
Reenqueueing errored packet 9425 at time 280
Additional hops: 3806
Adding flit 8640 as NACK at time 280
Additional hops: 3811
Adding flit 10321 as NACK at time 280
Additional hops: 3820
Adding flit 6816 as NACK at time 280
Reenqueueing errored packet 6299 at time 281
Reenqueueing errored packet 4474 at time 281
Additional hops: 3829
Adding flit 5502 as NACK at time 281
Additional hops: 3837
Adding flit 6648 as NACK at time 281
Additional hops: 3845
Adding flit 8034 as NACK at time 281
Reenqueueing errored packet 8554 at time 282
Additional hops: 3851
Adding flit 9095 as NACK at time 282
Additional hops: 3855
Adding flit 10613 as NACK at time 282
Reenqueueing errored packet 9030 at time 283
Reenqueueing errored packet 6176 at time 283
Reenqueueing errored packet 6642 at time 283
Reenqueueing errored packet 7648 at time 283
Additional hops: 3862
Adding flit 8900 as NACK at time 283
Additional hops: 3867
Adding flit 9435 as NACK at time 283
Additional hops: 3873
Adding flit 6532 as NACK at time 283
Additional hops: 3876
Adding flit 10945 as NACK at time 283
Additional hops: 3885
Adding flit 5507 as NACK at time 284
Additional hops: 3888
Adding flit 11425 as NACK at time 284
Additional hops: 3892
Adding flit 10874 as NACK at time 284
Additional hops: 3900
Adding flit 7654 as NACK at time 284
Additional hops: 3902
Adding flit 10887 as NACK at time 285
Additional hops: 3904
Adding flit 9972 as NACK at time 285
Additional hops: 3912
Adding flit 7770 as NACK at time 285
Additional hops: 3920
Adding flit 7640 as NACK at time 286
Additional hops: 3928
Adding flit 9267 as NACK at time 286
Additional hops: 3936
Adding flit 7130 as NACK at time 286
Reenqueueing errored packet 7175 at time 287
Reenqueueing errored packet 7324 at time 287
Reenqueueing errored packet 7852 at time 287
Additional hops: 3954
Adding flit 5459 as NACK at time 287
Additional hops: 3962
Adding flit 6551 as NACK at time 287
Additional hops: 3965
Adding flit 11025 as NACK at time 287
Reenqueueing errored packet 7687 at time 288
Reenqueueing errored packet 9179 at time 288
Reenqueueing errored packet 6812 at time 288
Reenqueueing errored packet 8267 at time 288
Reenqueueing errored packet 8940 at time 288
Reenqueueing errored packet 6742 at time 288
Reenqueueing errored packet 6005 at time 288
Additional hops: 3972
Adding flit 8172 as NACK at time 288
Additional hops: 3981
Adding flit 7180 as NACK at time 288
Additional hops: 3987
Adding flit 7946 as NACK at time 288
Additional hops: 3993
Adding flit 9337 as NACK at time 288
Additional hops: 3996
Adding flit 11540 as NACK at time 288
Reenqueueing errored packet 6964 at time 289
Additional hops: 4005
Adding flit 7128 as NACK at time 289
Additional hops: 4006
Adding flit 11839 as NACK at time 289
Additional hops: 4009
Adding flit 11546 as NACK at time 289
Reenqueueing errored packet 9972 at time 290
Reenqueueing errored packet 10887 at time 290
Reenqueueing errored packet 10945 at time 290
Reenqueueing errored packet 6863 at time 290
Reenqueueing errored packet 6498 at time 290
Reenqueueing errored packet 6185 at time 290
Reenqueueing errored packet 5250 at time 290
Reenqueueing errored packet 11425 at time 291
Reenqueueing errored packet 10613 at time 291
Reenqueueing errored packet 10321 at time 291
Reenqueueing errored packet 5958 at time 291
Reenqueueing errored packet 5065 at time 291
Additional hops: 4014
Adding flit 11121 as NACK at time 291
Additional hops: 4019
Adding flit 9684 as NACK at time 291
Additional hops: 4025
Adding flit 10222 as NACK at time 291
Additional hops: 4033
Adding flit 5745 as NACK at time 291
Additional hops: 4045
Adding flit 4851 as NACK at time 291
Reenqueueing errored packet 11839 at time 292
Additional hops: 4049
Adding flit 10318 as NACK at time 292
Additional hops: 4067
Adding flit 3394 as NACK at time 292
Additional hops: 4074
Adding flit 7574 as NACK at time 292
Additional hops: 4080
Adding flit 8414 as NACK at time 292
Additional hops: 4090
Adding flit 5029 as NACK at time 292
Reenqueueing errored packet 10874 at time 293
Reenqueueing errored packet 8640 at time 293
Additional hops: 4097
Adding flit 9437 as NACK at time 293
Reenqueueing errored packet 11025 at time 294
Reenqueueing errored packet 9435 at time 294
Additional hops: 4105
Adding flit 8092 as NACK at time 294
Additional hops: 4107
Adding flit 11347 as NACK at time 294
Additional hops: 4127
Adding flit 1029 as NACK at time 294
Reenqueueing errored packet 11540 at time 295
Reenqueueing errored packet 9095 at time 295
Reenqueueing errored packet 11546 at time 296
Reenqueueing errored packet 6532 at time 296
Reenqueueing errored packet 4669 at time 296
Additional hops: 4132
Adding flit 10165 as NACK at time 296
Reenqueueing errored packet 6895 at time 297
Reenqueueing errored packet 5674 at time 297
Additional hops: 4138
Adding flit 9526 as NACK at time 297
Additional hops: 4142
Adding flit 11813 as NACK at time 297
Additional hops: 4147
Adding flit 11140 as NACK at time 297
Reenqueueing errored packet 8900 at time 298
Reenqueueing errored packet 8034 at time 298
Reenqueueing errored packet 6648 at time 298
Reenqueueing errored packet 6675 at time 298
Additional hops: 4154
Adding flit 9132 as NACK at time 298
Additional hops: 4159
Adding flit 8134 as NACK at time 298
Reenqueueing errored packet 11347 at time 299
Additional hops: 4169
Adding flit 6674 as NACK at time 299
Reenqueueing errored packet 5502 at time 300
Additional hops: 4173
Adding flit 8960 as NACK at time 300
Reenqueueing errored packet 10318 at time 301
Reenqueueing errored packet 9337 at time 301
Reenqueueing errored packet 7946 at time 301
Reenqueueing errored packet 7654 at time 301
Additional hops: 4179
Adding flit 9489 as NACK at time 301
Additional hops: 4190
Adding flit 5246 as NACK at time 301
Reenqueueing errored packet 9684 at time 302
Reenqueueing errored packet 11121 at time 302
Reenqueueing errored packet 7770 at time 302
Additional hops: 4194
Adding flit 7766 as NACK at time 302
Additional hops: 4204
Adding flit 8487 as NACK at time 302
Reenqueueing errored packet 8172 at time 303
Reenqueueing errored packet 7130 at time 303
Reenqueueing errored packet 9267 at time 303
Reenqueueing errored packet 7640 at time 303
Reenqueueing errored packet 5507 at time 303
Additional hops: 4206
Adding flit 11635 as NACK at time 303
Additional hops: 4214
Adding flit 9024 as NACK at time 303
Reenqueueing errored packet 10222 at time 304
Reenqueueing errored packet 6551 at time 304
Reenqueueing errored packet 904 at time 304
Reenqueueing errored packet 8414 at time 305
Additional hops: 4223
Adding flit 6515 as NACK at time 305
Additional hops: 4232
Adding flit 7341 as NACK at time 305
Additional hops: 4237
Adding flit 10988 as NACK at time 305
Additional hops: 4241
Adding flit 10571 as NACK at time 305
Additional hops: 4244
Adding flit 10858 as NACK at time 305
Additional hops: 4251
Adding flit 7376 as NACK at time 305
Reenqueueing errored packet 11813 at time 306
Reenqueueing errored packet 1981 at time 306
Additional hops: 4253
Adding flit 11581 as NACK at time 306
Additional hops: 4263
Adding flit 4813 as NACK at time 306
Additional hops: 4271
Adding flit 7506 as NACK at time 306
Reenqueueing errored packet 10165 at time 307
Reenqueueing errored packet 7574 at time 307
Reenqueueing errored packet 7180 at time 307
Additional hops: 4272
Adding flit 12586 as NACK at time 307
Reenqueueing errored packet 11635 at time 308
Reenqueueing errored packet 11140 at time 308
Reenqueueing errored packet 9437 at time 308
Reenqueueing errored packet 5745 at time 308
Reenqueueing errored packet 7128 at time 308
Additional hops: 4275
Adding flit 8965 as NACK at time 308
Reenqueueing errored packet 8960 at time 309
Reenqueueing errored packet 8134 at time 309
Additional hops: 4282
Adding flit 9017 as NACK at time 309
Additional hops: 4285
Adding flit 9289 as NACK at time 309
Additional hops: 4299
Adding flit 5466 as NACK at time 309
Reenqueueing errored packet 12586 at time 310
Reenqueueing errored packet 9526 at time 310
Additional hops: 4304
Adding flit 11523 as NACK at time 310
Additional hops: 4312
Adding flit 6932 as NACK at time 310
Reenqueueing errored packet 11581 at time 311
Reenqueueing errored packet 7766 at time 311
Reenqueueing errored packet 8092 at time 311
Additional hops: 4318
Adding flit 11164 as NACK at time 311
Additional hops: 4324
Adding flit 8572 as NACK at time 311
Reenqueueing errored packet 10858 at time 312
Additional hops: 4331
Adding flit 10175 as NACK at time 312
Additional hops: 4338
Adding flit 8970 as NACK at time 312
Additional hops: 4347
Adding flit 8314 as NACK at time 312
Reenqueueing errored packet 9132 at time 313
Reenqueueing errored packet 5029 at time 313
Additional hops: 4354
Adding flit 10006 as NACK at time 313
Additional hops: 4360
Adding flit 9610 as NACK at time 313
Reenqueueing errored packet 10571 at time 314
Reenqueueing errored packet 9489 at time 314
Additional hops: 4368
Adding flit 10336 as NACK at time 314
Additional hops: 4378
Adding flit 7435 as NACK at time 314
Reenqueueing errored packet 8965 at time 315
Additional hops: 4383
Adding flit 11085 as NACK at time 315
Additional hops: 4386
Adding flit 11747 as NACK at time 315
Reenqueueing errored packet 9289 at time 316
Reenqueueing errored packet 10988 at time 316
Reenqueueing errored packet 4851 at time 316
Additional hops: 4389
Adding flit 12158 as NACK at time 316
Additional hops: 4407
Adding flit 3735 as NACK at time 317
Additional hops: 4413
Adding flit 8103 as NACK at time 317
Additional hops: 4419
Adding flit 9975 as NACK at time 317
Additional hops: 4430
Adding flit 6700 as NACK at time 318
Additional hops: 4437
Adding flit 8919 as NACK at time 318
Additional hops: 4438
Adding flit 13049 as NACK at time 319
Additional hops: 4444
Adding flit 11796 as NACK at time 319
Reenqueueing errored packet 7376 at time 320
Reenqueueing errored packet 9024 at time 320
Reenqueueing errored packet 6674 at time 320
Additional hops: 4452
Adding flit 7985 as NACK at time 320
Additional hops: 4455
Adding flit 12862 as NACK at time 320
Additional hops: 4467
Adding flit 5349 as NACK at time 320
Reenqueueing errored packet 11523 at time 321
Additional hops: 4469
Adding flit 13062 as NACK at time 321
Reenqueueing errored packet 13049 at time 322
Reenqueueing errored packet 11747 at time 322
Additional hops: 4474
Adding flit 10196 as NACK at time 322
Reenqueueing errored packet 12158 at time 323
Reenqueueing errored packet 7506 at time 323
Reenqueueing errored packet 8487 at time 323
Reenqueueing errored packet 8572 at time 324
Reenqueueing errored packet 11164 at time 324
Reenqueueing errored packet 9017 at time 324
Reenqueueing errored packet 7341 at time 324
Reenqueueing errored packet 6515 at time 324
Reenqueueing errored packet 5246 at time 324
Reenqueueing errored packet 5459 at time 324
Additional hops: 4479
Adding flit 11200 as NACK at time 324
Additional hops: 4485
Adding flit 10852 as NACK at time 324
Additional hops: 4492
Adding flit 10861 as NACK at time 324
Reenqueueing errored packet 13062 at time 326
Reenqueueing errored packet 11085 at time 326
Reenqueueing errored packet 9610 at time 326
Reenqueueing errored packet 12862 at time 327
Reenqueueing errored packet 8970 at time 327
Reenqueueing errored packet 10175 at time 327
Reenqueueing errored packet 6932 at time 327
Reenqueueing errored packet 4813 at time 327
Additional hops: 4503
Adding flit 7392 as NACK at time 327
Additional hops: 4507
Adding flit 11347 as NACK at time 327
Additional hops: 4511
Adding flit 11895 as NACK at time 327
Reenqueueing errored packet 10006 at time 328
Additional hops: 4517
Adding flit 9027 as NACK at time 328
Additional hops: 4524
Adding flit 8908 as NACK at time 328
Reenqueueing errored packet 3394 at time 329
Additional hops: 4531
Adding flit 11074 as NACK at time 329
Additional hops: 4538
Adding flit 8238 as NACK at time 329
Additional hops: 4546
Adding flit 7328 as NACK at time 329
Additional hops: 4555
Adding flit 7069 as NACK at time 329
Additional hops: 4558
Adding flit 11280 as NACK at time 329
Reenqueueing errored packet 9975 at time 330
Reenqueueing errored packet 8103 at time 330
Reenqueueing errored packet 10336 at time 331
Reenqueueing errored packet 8314 at time 331
Additional hops: 4570
Adding flit 6065 as NACK at time 331
Additional hops: 4575
Adding flit 11015 as NACK at time 331
Additional hops: 4584
Adding flit 7658 as NACK at time 331
Additional hops: 4593
Adding flit 8442 as NACK at time 331
Reenqueueing errored packet 11796 at time 332
Additional hops: 4601
Adding flit 9446 as NACK at time 332
Additional hops: 4608
Adding flit 11292 as NACK at time 332
Reenqueueing errored packet 10196 at time 333
Reenqueueing errored packet 8919 at time 333
Additional hops: 4616
Adding flit 7465 as NACK at time 333
Additional hops: 4622
Adding flit 10855 as NACK at time 333
Additional hops: 4626
Adding flit 12486 as NACK at time 333
Additional hops: 4632
Adding flit 9716 as NACK at time 334
Additional hops: 4634
Adding flit 13603 as NACK at time 334
Additional hops: 4643
Adding flit 10710 as NACK at time 334
Reenqueueing errored packet 11200 at time 335
Reenqueueing errored packet 7435 at time 335
Reenqueueing errored packet 1029 at time 335
Additional hops: 4650
Adding flit 10921 as NACK at time 335
Reenqueueing errored packet 11280 at time 336
Reenqueueing errored packet 11895 at time 336
Reenqueueing errored packet 11347 at time 336
Additional hops: 4654
Adding flit 8410 as NACK at time 336
Additional hops: 4658
Adding flit 10573 as NACK at time 336
Reenqueueing errored packet 10852 at time 337
Reenqueueing errored packet 7985 at time 337
Additional hops: 4665
Adding flit 9063 as NACK at time 337
Reenqueueing errored packet 5466 at time 338
Additional hops: 4669
Adding flit 11797 as NACK at time 338
Additional hops: 4678
Adding flit 10927 as NACK at time 338
Reenqueueing errored packet 13603 at time 339
Reenqueueing errored packet 10861 at time 339
Additional hops: 4684
Adding flit 10396 as NACK at time 339
Additional hops: 4690
Adding flit 10948 as NACK at time 340
Reenqueueing errored packet 9027 at time 341
Reenqueueing errored packet 6700 at time 341
Additional hops: 4694
Adding flit 12994 as NACK at time 341
Additional hops: 4704
Adding flit 7098 as NACK at time 341
Additional hops: 4711
Adding flit 6824 as NACK at time 341
Reenqueueing errored packet 12486 at time 342
Reenqueueing errored packet 11015 at time 342
Reenqueueing errored packet 8908 at time 343
Additional hops: 4717
Adding flit 11837 as NACK at time 343
Reenqueueing errored packet 8238 at time 344
Reenqueueing errored packet 11074 at time 344
Additional hops: 4725
Adding flit 8932 as NACK at time 344
Reenqueueing errored packet 10573 at time 345
Reenqueueing errored packet 8410 at time 345
Reenqueueing errored packet 5349 at time 345
Reenqueueing errored packet 10855 at time 346
Reenqueueing errored packet 7328 at time 346
Additional hops: 4734
Adding flit 9944 as NACK at time 346
Additional hops: 4740
Adding flit 11564 as NACK at time 346
Additional hops: 4746
Adding flit 10905 as NACK at time 346
Reenqueueing errored packet 11797 at time 347
Reenqueueing errored packet 9716 at time 347
Reenqueueing errored packet 11292 at time 347
Additional hops: 4752
Adding flit 11751 as NACK at time 347
Additional hops: 4759
Adding flit 9537 as NACK at time 347
Additional hops: 4764
Adding flit 10154 as NACK at time 347
Reenqueueing errored packet 7069 at time 348
Additional hops: 4771
Adding flit 9994 as NACK at time 348
Additional hops: 4774
Adding flit 13902 as NACK at time 348
Reenqueueing errored packet 9446 at time 349
Reenqueueing errored packet 12994 at time 350
Reenqueueing errored packet 10921 at time 350
Reenqueueing errored packet 7465 at time 350
Reenqueueing errored packet 8442 at time 350
Reenqueueing errored packet 7658 at time 350
Reenqueueing errored packet 7392 at time 350
Additional hops: 4782
Adding flit 7588 as NACK at time 350
Additional hops: 4788
Adding flit 9615 as NACK at time 351
Additional hops: 4792
Adding flit 12762 as NACK at time 351
Additional hops: 4795
Adding flit 13971 as NACK at time 351
Additional hops: 4798
Adding flit 14186 as NACK at time 351
Reenqueueing errored packet 10396 at time 352
Reenqueueing errored packet 9063 at time 352
Additional hops: 4806
Adding flit 10318 as NACK at time 352
Additional hops: 4813
Adding flit 11815 as NACK at time 352
Additional hops: 4816
Adding flit 14103 as NACK at time 352
Additional hops: 4821
Adding flit 11912 as NACK at time 352
Additional hops: 4829
Adding flit 11388 as NACK at time 352
Reenqueueing errored packet 10948 at time 353
Reenqueueing errored packet 10710 at time 353
Additional hops: 4840
Adding flit 6242 as NACK at time 353
Reenqueueing errored packet 3735 at time 354
Additional hops: 4849
Adding flit 8215 as NACK at time 354
Additional hops: 4854
Adding flit 10385 as NACK at time 354
Additional hops: 4857
Adding flit 12346 as NACK at time 354
Reenqueueing errored packet 13902 at time 355
Additional hops: 4865
Adding flit 8959 as NACK at time 355
Additional hops: 4873
Adding flit 11327 as NACK at time 355
Reenqueueing errored packet 11837 at time 356
Reenqueueing errored packet 6824 at time 356
Reenqueueing errored packet 6065 at time 356
Additional hops: 4874
Adding flit 14667 as NACK at time 356
Additional hops: 4880
Adding flit 9123 as NACK at time 356
Reenqueueing errored packet 10927 at time 357
Additional hops: 4892
Adding flit 8591 as NACK at time 357
Additional hops: 4900
Adding flit 9074 as NACK at time 357
Additional hops: 4905
Adding flit 9414 as NACK at time 357
Reenqueueing errored packet 14186 at time 358
Reenqueueing errored packet 13971 at time 358
Reenqueueing errored packet 10154 at time 358
Additional hops: 4912
Adding flit 13211 as NACK at time 358
Reenqueueing errored packet 14667 at time 359
Reenqueueing errored packet 14103 at time 359
Reenqueueing errored packet 10905 at time 359
Reenqueueing errored packet 11564 at time 359
Additional hops: 4918
Adding flit 13794 as NACK at time 359
Additional hops: 4925
Adding flit 9689 as NACK at time 359
Reenqueueing errored packet 12762 at time 360
Reenqueueing errored packet 11751 at time 360
Additional hops: 4932
Adding flit 10862 as NACK at time 360
Additional hops: 4939
Adding flit 10190 as NACK at time 360
Additional hops: 4949
Adding flit 9556 as NACK at time 360
Additional hops: 4952
Adding flit 13874 as NACK at time 360
Reenqueueing errored packet 12346 at time 361
Reenqueueing errored packet 8932 at time 361
Reenqueueing errored packet 9537 at time 362
Reenqueueing errored packet 7098 at time 362
Additional hops: 4957
Adding flit 12220 as NACK at time 362
Reenqueueing errored packet 11912 at time 363
Reenqueueing errored packet 9994 at time 363
Additional hops: 4961
Adding flit 10308 as NACK at time 363
Reenqueueing errored packet 9615 at time 364
Additional hops: 4969
Adding flit 10240 as NACK at time 364
Reenqueueing errored packet 10385 at time 365
Reenqueueing errored packet 9944 at time 365
Additional hops: 4979
Adding flit 9684 as NACK at time 365
Additional hops: 4988
Adding flit 11112 as NACK at time 366
Additional hops: 4992
Adding flit 14703 as NACK at time 366
Additional hops: 4997
Adding flit 9372 as NACK at time 366
Additional hops: 5002
Adding flit 10457 as NACK at time 366
Reenqueueing errored packet 13874 at time 367
Reenqueueing errored packet 11815 at time 367
Reenqueueing errored packet 7588 at time 367
Additional hops: 5004
Adding flit 13372 as NACK at time 367
Reenqueueing errored packet 9414 at time 368
Additional hops: 5011
Adding flit 10496 as NACK at time 368
Additional hops: 5019
Adding flit 8686 as NACK at time 368
Additional hops: 5026
Adding flit 12554 as NACK at time 368
Reenqueueing errored packet 9123 at time 369
Reenqueueing errored packet 11388 at time 369
Reenqueueing errored packet 10318 at time 369
Additional hops: 5031
Adding flit 14007 as NACK at time 370
Additional hops: 5044
Adding flit 6866 as NACK at time 370
Additional hops: 5055
Adding flit 6686 as NACK at time 370
Additional hops: 5064
Adding flit 8627 as NACK at time 371
Additional hops: 5070
Adding flit 12437 as NACK at time 371
Additional hops: 5077
Adding flit 12030 as NACK at time 371
Additional hops: 5081
Adding flit 12993 as NACK at time 371
Reenqueueing errored packet 13372 at time 372
Reenqueueing errored packet 10308 at time 372
Reenqueueing errored packet 13794 at time 372
Reenqueueing errored packet 11327 at time 372
Reenqueueing errored packet 8959 at time 372
Additional hops: 5087
Adding flit 12841 as NACK at time 372
Additional hops: 5093
Adding flit 12906 as NACK at time 372
Reenqueueing errored packet 12220 at time 373
Reenqueueing errored packet 13211 at time 373
Reenqueueing errored packet 8215 at time 373
Additional hops: 5099
Adding flit 13278 as NACK at time 373
Additional hops: 5112
Adding flit 7900 as NACK at time 373
Additional hops: 5115
Adding flit 10264 as NACK at time 373
Reenqueueing errored packet 9689 at time 374
Reenqueueing errored packet 9074 at time 374
Additional hops: 5124
Adding flit 11985 as NACK at time 374
Additional hops: 5134
Adding flit 8199 as NACK at time 374
Additional hops: 5141
Adding flit 8783 as NACK at time 374
Additional hops: 5151
Adding flit 7289 as NACK at time 374
Reenqueueing errored packet 14703 at time 375
Reenqueueing errored packet 10190 at time 375
Reenqueueing errored packet 10862 at time 375
Additional hops: 5163
Adding flit 7391 as NACK at time 375
Additional hops: 5167
Adding flit 14935 as NACK at time 375
Reenqueueing errored packet 6242 at time 376
Additional hops: 5172
Adding flit 11788 as NACK at time 376
Additional hops: 5176
Adding flit 13398 as NACK at time 376
Reenqueueing errored packet 10457 at time 377
Reenqueueing errored packet 9372 at time 377
Additional hops: 5183
Adding flit 9244 as NACK at time 377
Additional hops: 5192
Adding flit 8400 as NACK at time 377
Additional hops: 5199
Adding flit 10205 as NACK at time 378
Additional hops: 5203
Adding flit 10868 as NACK at time 378
Additional hops: 5212
Adding flit 9382 as NACK at time 378
Additional hops: 5226
Adding flit 5044 as NACK at time 379
Additional hops: 5236
Adding flit 9701 as NACK at time 379
Reenqueueing errored packet 10264 at time 380
Reenqueueing errored packet 12993 at time 380
Additional hops: 5247
Adding flit 11245 as NACK at time 380
Additional hops: 5253
Adding flit 12492 as NACK at time 380
Additional hops: 5258
Adding flit 10836 as NACK at time 380
Reenqueueing errored packet 14007 at time 381
Reenqueueing errored packet 10240 at time 381
[...]
Additional hops: 162190
Adding flit 250647 as NACK at time 9918
Additional hops: 162196
Adding flit 330835 as NACK at time 9918
Reenqueueing errored packet 335560 at time 9919
Reenqueueing errored packet 348020 at time 9919
Reenqueueing errored packet 297397 at time 9919
Additional hops: 162205
Adding flit 270898 as NACK at time 9919
Additional hops: 162211
Adding flit 311068 as NACK at time 9919
Additional hops: 162216
Adding flit 249415 as NACK at time 9919
Additional hops: 162240
Adding flit 297489 as NACK at time 9919
Reenqueueing errored packet 329360 at time 9920
Additional hops: 162249
Adding flit 296138 as NACK at time 9920
Reenqueueing errored packet 347724 at time 9921
Additional hops: 162254
Adding flit 301852 as NACK at time 9921
Additional hops: 162265
Adding flit 219654 as NACK at time 9921
Additional hops: 162269
Adding flit 347104 as NACK at time 9921
Additional hops: 162272
Adding flit 364063 as NACK at time 9921
Reenqueueing errored packet 342580 at time 9922
Reenqueueing errored packet 309345 at time 9923
Reenqueueing errored packet 286096 at time 9923
Reenqueueing errored packet 263849 at time 9923
Additional hops: 162279
Adding flit 336770 as NACK at time 9923
Additional hops: 162286
Adding flit 353686 as NACK at time 9923
Additional hops: 162295
Adding flit 220022 as NACK at time 9923
Additional hops: 162298
Adding flit 368479 as NACK at time 9923
Reenqueueing errored packet 350032 at time 9924
Reenqueueing errored packet 361655 at time 9924
Additional hops: 162303
Adding flit 323743 as NACK at time 9925
Reenqueueing errored packet 361781 at time 9926
Reenqueueing errored packet 362473 at time 9926
Reenqueueing errored packet 346764 at time 9926
Additional hops: 162312
Adding flit 318062 as NACK at time 9926
Additional hops: 162320
Adding flit 221701 as NACK at time 9926
Reenqueueing errored packet 335802 at time 9927
Additional hops: 162333
Adding flit 219440 as NACK at time 9927
Additional hops: 162335
Adding flit 352810 as NACK at time 9927
Reenqueueing errored packet 364063 at time 9928
Reenqueueing errored packet 361911 at time 9928
Reenqueueing errored packet 326775 at time 9928
Additional hops: 162340
Adding flit 256632 as NACK at time 9928
Additional hops: 162352
Adding flit 223246 as NACK at time 9928
Additional hops: 162358
Adding flit 362350 as NACK at time 9928
Reenqueueing errored packet 329187 at time 9929
Additional hops: 162361
Adding flit 329920 as NACK at time 9929
Additional hops: 162371
Adding flit 320357 as NACK at time 9929
Reenqueueing errored packet 368479 at time 9930
Reenqueueing errored packet 249415 at time 9930
Additional hops: 162379
Adding flit 304870 as NACK at time 9930
Additional hops: 162382
Adding flit 329962 as NACK at time 9930
Reenqueueing errored packet 330835 at time 9931
Additional hops: 162392
Adding flit 300879 as NACK at time 9931
Additional hops: 162401
Adding flit 336933 as NACK at time 9931
Additional hops: 162405
Adding flit 368411 as NACK at time 9931
Additional hops: 162410
Adding flit 299054 as NACK at time 9931
Additional hops: 162415
Adding flit 336483 as NACK at time 9931
Additional hops: 162425
Adding flit 331799 as NACK at time 9931
Reenqueueing errored packet 352810 at time 9932
Reenqueueing errored packet 301852 at time 9932
Reenqueueing errored packet 311068 at time 9932
Reenqueueing errored packet 212073 at time 9932
Additional hops: 162434
Adding flit 339477 as NACK at time 9932
Additional hops: 162441
Adding flit 316395 as NACK at time 9932
Additional hops: 162445
Adding flit 315733 as NACK at time 9932
Reenqueueing errored packet 342268 at time 9933
Additional hops: 162452
Adding flit 337792 as NACK at time 9933
Additional hops: 162457
Adding flit 345877 as NACK at time 9933
Additional hops: 162459
Adding flit 286732 as NACK at time 9933
Additional hops: 162462
Adding flit 352984 as NACK at time 9933
Additional hops: 162467
Adding flit 337271 as NACK at time 9933
Additional hops: 162475
Adding flit 298169 as NACK at time 9934
Additional hops: 162481
Adding flit 249670 as NACK at time 9934
Additional hops: 162484
Adding flit 340640 as NACK at time 9935
Additional hops: 162495
Adding flit 229347 as NACK at time 9935
Reenqueueing errored packet 329920 at time 9936
Reenqueueing errored packet 323743 at time 9936
Additional hops: 162515
Adding flit 289176 as NACK at time 9936
Additional hops: 162523
Adding flit 345544 as NACK at time 9936
Additional hops: 162531
Adding flit 335929 as NACK at time 9936
Reenqueueing errored packet 329962 at time 9937
Reenqueueing errored packet 307609 at time 9937
Additional hops: 162543
Adding flit 209082 as NACK at time 9937
Additional hops: 162548
Adding flit 334007 as NACK at time 9937
Additional hops: 162559
Adding flit 297305 as NACK at time 9937
Reenqueueing errored packet 286732 at time 9938
Reenqueueing errored packet 353686 at time 9938
Reenqueueing errored packet 336770 at time 9938
Additional hops: 162566
Adding flit 303946 as NACK at time 9938
Additional hops: 162575
Adding flit 262235 as NACK at time 9938
Reenqueueing errored packet 296138 at time 9939
Additional hops: 162585
Adding flit 219890 as NACK at time 9939
Additional hops: 162590
Adding flit 347344 as NACK at time 9939
Additional hops: 162600
Adding flit 223120 as NACK at time 9939
Additional hops: 162609
Adding flit 332070 as NACK at time 9939
Additional hops: 162613
Adding flit 346743 as NACK at time 9939
Reenqueueing errored packet 352984 at time 9940
Reenqueueing errored packet 368411 at time 9940
Reenqueueing errored packet 315733 at time 9941
Reenqueueing errored packet 362350 at time 9941
Additional hops: 162618
Adding flit 345556 as NACK at time 9941
Additional hops: 162624
Adding flit 324281 as NACK at time 9941
Additional hops: 162633
Adding flit 313812 as NACK at time 9941
Additional hops: 162645
Adding flit 291987 as NACK at time 9941
Reenqueueing errored packet 340640 at time 9942
Reenqueueing errored packet 336483 at time 9942
Reenqueueing errored packet 220022 at time 9942
Additional hops: 162653
Adding flit 332026 as NACK at time 9942
Additional hops: 162659
Adding flit 234219 as NACK at time 9942
Additional hops: 162667
Adding flit 347317 as NACK at time 9942
Additional hops: 162671
Adding flit 290904 as NACK at time 9942
Additional hops: 162676
Adding flit 336381 as NACK at time 9942
Additional hops: 162684
Adding flit 324485 as NACK at time 9942
Additional hops: 162690
Adding flit 338641 as NACK at time 9942
Reenqueueing errored packet 221701 at time 9943
Reenqueueing errored packet 316668 at time 9943
Additional hops: 162699
Adding flit 325915 as NACK at time 9943
Additional hops: 162705
Adding flit 361485 as NACK at time 9943
Reenqueueing errored packet 337271 at time 9944
Reenqueueing errored packet 345877 at time 9944
Additional hops: 162714
Adding flit 348967 as NACK at time 9944
Additional hops: 162722
Adding flit 234189 as NACK at time 9944
Additional hops: 162729
Adding flit 252105 as NACK at time 9944
Reenqueueing errored packet 318062 at time 9945
Additional hops: 162737
Adding flit 238486 as NACK at time 9945
Reenqueueing errored packet 249670 at time 9947
Reenqueueing errored packet 316395 at time 9947
Reenqueueing errored packet 304870 at time 9947
Additional hops: 162744
Adding flit 296792 as NACK at time 9947
Additional hops: 162751
Adding flit 352713 as NACK at time 9947
Additional hops: 162757
Adding flit 346417 as NACK at time 9947
Additional hops: 162764
Adding flit 348557 as NACK at time 9947
Additional hops: 162771
Adding flit 366326 as NACK at time 9947
Reenqueueing errored packet 346743 at time 9948
Reenqueueing errored packet 334007 at time 9948
Reenqueueing errored packet 337792 at time 9948
Additional hops: 162776
Adding flit 337842 as NACK at time 9948
Additional hops: 162777
Adding flit 348432 as NACK at time 9949
Additional hops: 162785
Adding flit 298770 as NACK at time 9949
Additional hops: 162790
Adding flit 278407 as NACK at time 9949
Reenqueueing errored packet 347344 at time 9950
Reenqueueing errored packet 336933 at time 9950
Reenqueueing errored packet 320357 at time 9950
Additional hops: 162798
Adding flit 308878 as NACK at time 9950
Additional hops: 162814
Adding flit 317932 as NACK at time 9950
Reenqueueing errored packet 298169 at time 9951
Reenqueueing errored packet 339477 at time 9951
Additional hops: 162821
Adding flit 247677 as NACK at time 9951
Additional hops: 162825
Adding flit 364791 as NACK at time 9951
Additional hops: 162832
Adding flit 310690 as NACK at time 9951
Additional hops: 162840
Adding flit 243162 as NACK at time 9951
Reenqueueing errored packet 348432 at time 9952
Reenqueueing errored packet 345556 at time 9952
Reenqueueing errored packet 331799 at time 9952
Additional hops: 162845
Adding flit 366791 as NACK at time 9952
Reenqueueing errored packet 336381 at time 9953
Reenqueueing errored packet 303946 at time 9953
Reenqueueing errored packet 335929 at time 9953
Reenqueueing errored packet 345544 at time 9953
Additional hops: 162855
Adding flit 333091 as NACK at time 9953
Additional hops: 162864
Adding flit 240029 as NACK at time 9953
Reenqueueing errored packet 324281 at time 9954
Reenqueueing errored packet 338641 at time 9955
Additional hops: 162871
Adding flit 279363 as NACK at time 9955
Additional hops: 162878
Adding flit 229970 as NACK at time 9955
Additional hops: 162891
Adding flit 212549 as NACK at time 9955
Additional hops: 162897
Adding flit 366795 as NACK at time 9955
Reenqueueing errored packet 361485 at time 9956
Additional hops: 162908
Adding flit 226017 as NACK at time 9956
Additional hops: 162916
Adding flit 298805 as NACK at time 9956
Additional hops: 162925
Adding flit 304640 as NACK at time 9956
Additional hops: 162929
Adding flit 363953 as NACK at time 9957
Additional hops: 162941
Adding flit 285837 as NACK at time 9957
Reenqueueing errored packet 332070 at time 9958
Additional hops: 162945
Adding flit 245205 as NACK at time 9958
Additional hops: 162952
Adding flit 317577 as NACK at time 9958
Additional hops: 162957
Adding flit 275805 as NACK at time 9958
Reenqueueing errored packet 337842 at time 9959
Reenqueueing errored packet 324485 at time 9959
Reenqueueing errored packet 347317 at time 9959
Reenqueueing errored packet 332026 at time 9959
Additional hops: 162970
Adding flit 219519 as NACK at time 9959
Additional hops: 162977
Adding flit 351454 as NACK at time 9959
Additional hops: 162985
Adding flit 251748 as NACK at time 9959
Reenqueueing errored packet 364791 at time 9960
Reenqueueing errored packet 278407 at time 9960
Reenqueueing errored packet 346417 at time 9960
Reenqueueing errored packet 313812 at time 9960
Reenqueueing errored packet 297305 at time 9960
Additional hops: 162997
Adding flit 224856 as NACK at time 9960
Additional hops: 163002
Adding flit 325639 as NACK at time 9960
Additional hops: 163007
Adding flit 323123 as NACK at time 9961
Additional hops: 163011
Adding flit 339406 as NACK at time 9961
Additional hops: 163018
Adding flit 317920 as NACK at time 9961
Additional hops: 163024
Adding flit 338246 as NACK at time 9961
Additional hops: 163029
Adding flit 318869 as NACK at time 9961
Reenqueueing errored packet 366326 at time 9962
Reenqueueing errored packet 348557 at time 9962
Reenqueueing errored packet 352713 at time 9962
Reenqueueing errored packet 325915 at time 9962
Additional hops: 163041
Adding flit 218032 as NACK at time 9962
Additional hops: 163053
Adding flit 327929 as NACK at time 9962
Additional hops: 163056
Adding flit 280702 as NACK at time 9962
Additional hops: 163061
Adding flit 350177 as NACK at time 9962
Reenqueueing errored packet 366791 at time 9963
Reenqueueing errored packet 348967 at time 9963
Additional hops: 163067
Adding flit 244838 as NACK at time 9964
Additional hops: 163071
Adding flit 254919 as NACK at time 9964
Additional hops: 163079
Adding flit 311552 as NACK at time 9965
Additional hops: 163089
Adding flit 222373 as NACK at time 9965
Additional hops: 163099
Adding flit 230439 as NACK at time 9965
Additional hops: 163105
Adding flit 314853 as NACK at time 9965
Additional hops: 163111
Adding flit 226771 as NACK at time 9965
Reenqueueing errored packet 363953 at time 9966
Reenqueueing errored packet 310690 at time 9966
Reenqueueing errored packet 247677 at time 9966
Reenqueueing errored packet 298770 at time 9966
Reenqueueing errored packet 291987 at time 9966
Additional hops: 163120
Adding flit 245692 as NACK at time 9966
Reenqueueing errored packet 308878 at time 9967
Additional hops: 163125
Adding flit 245747 as NACK at time 9967
Reenqueueing errored packet 366795 at time 9968
Reenqueueing errored packet 297489 at time 9968
Additional hops: 163127
Adding flit 348343 as NACK at time 9968
Additional hops: 163133
Adding flit 351523 as NACK at time 9968
Additional hops: 163143
Adding flit 217646 as NACK at time 9969
Additional hops: 163147
Adding flit 354284 as NACK at time 9969
Additional hops: 163155
Adding flit 245821 as NACK at time 9969
Reenqueueing errored packet 339406 at time 9970
Reenqueueing errored packet 279363 at time 9970
Additional hops: 163164
Adding flit 306043 as NACK at time 9970
Additional hops: 163173
Adding flit 212027 as NACK at time 9970
Reenqueueing errored packet 325639 at time 9971
Additional hops: 163180
Adding flit 227919 as NACK at time 9971
Additional hops: 163187
Adding flit 335930 as NACK at time 9971
Additional hops: 163192
Adding flit 362666 as NACK at time 9971
Reenqueueing errored packet 318869 at time 9972
Reenqueueing errored packet 323123 at time 9972
Additional hops: 163202
Adding flit 290988 as NACK at time 9972
Reenqueueing errored packet 348343 at time 9973
Reenqueueing errored packet 254919 at time 9973
Reenqueueing errored packet 350177 at time 9973
Reenqueueing errored packet 317577 at time 9973
Reenqueueing errored packet 298805 at time 9973
Additional hops: 163211
Adding flit 344311 as NACK at time 9973
Additional hops: 163217
Adding flit 344920 as NACK at time 9973
Reenqueueing errored packet 338246 at time 9974
Reenqueueing errored packet 351454 at time 9974
Reenqueueing errored packet 333091 at time 9974
Additional hops: 163225
Adding flit 294938 as NACK at time 9974
Reenqueueing errored packet 304640 at time 9975
Additional hops: 163231
Adding flit 322066 as NACK at time 9975
Additional hops: 163237
Adding flit 336263 as NACK at time 9975
Additional hops: 163244
Adding flit 293001 as NACK at time 9975
Additional hops: 163251
Adding flit 224678 as NACK at time 9975
Reenqueueing errored packet 317920 at time 9976
Additional hops: 163255
Adding flit 354444 as NACK at time 9976
Reenqueueing errored packet 244838 at time 9977
Reenqueueing errored packet 289176 at time 9977
Additional hops: 163261
Adding flit 367292 as NACK at time 9977
Reenqueueing errored packet 354284 at time 9978
Reenqueueing errored packet 226771 at time 9978
Reenqueueing errored packet 314853 at time 9978
Additional hops: 163266
Adding flit 365998 as NACK at time 9978
Additional hops: 163268
Adding flit 354740 as NACK at time 9979
Additional hops: 163275
Adding flit 306220 as NACK at time 9979
Additional hops: 163282
Adding flit 302666 as NACK at time 9979
Additional hops: 163287
Adding flit 339258 as NACK at time 9980
Reenqueueing errored packet 351523 at time 9981
Additional hops: 163290
Adding flit 351624 as NACK at time 9981
Reenqueueing errored packet 362666 at time 9982
Reenqueueing errored packet 311552 at time 9982
Reenqueueing errored packet 285837 at time 9982
Reenqueueing errored packet 212549 at time 9982
Additional hops: 163299
Adding flit 335158 as NACK at time 9982
Additional hops: 163310
Adding flit 239450 as NACK at time 9982
Additional hops: 163319
Adding flit 323105 as NACK at time 9982
Reenqueueing errored packet 317932 at time 9983
Additional hops: 163328
Adding flit 317173 as NACK at time 9983
Reenqueueing errored packet 354740 at time 9984
Additional hops: 163340
Adding flit 221821 as NACK at time 9984
Additional hops: 163350
Adding flit 323306 as NACK at time 9984
Additional hops: 163359
Adding flit 222440 as NACK at time 9984
Reenqueueing errored packet 354444 at time 9985
Additional hops: 163362
Adding flit 241955 as NACK at time 9985
Additional hops: 163369
Adding flit 309733 as NACK at time 9985
Additional hops: 163374
Adding flit 350748 as NACK at time 9985
Reenqueueing errored packet 344920 at time 9986
Reenqueueing errored packet 335930 at time 9986
Reenqueueing errored packet 245821 at time 9986
Additional hops: 163382
Adding flit 254793 as NACK at time 9986
Additional hops: 163390
Adding flit 332201 as NACK at time 9986
Reenqueueing errored packet 327929 at time 9987
Additional hops: 163399
Adding flit 296726 as NACK at time 9987
Reenqueueing errored packet 351624 at time 9988
Reenqueueing errored packet 336263 at time 9988
Reenqueueing errored packet 322066 at time 9988
Additional hops: 163407
Adding flit 225753 as NACK at time 9988
Additional hops: 163411
Adding flit 370031 as NACK at time 9988
Additional hops: 163417
Adding flit 331110 as NACK at time 9988
Reenqueueing errored packet 365998 at time 9989
Reenqueueing errored packet 306043 at time 9989
Additional hops: 163422
Adding flit 355493 as NACK at time 9989
Additional hops: 163428
Adding flit 316356 as NACK at time 9989
Reenqueueing errored packet 367292 at time 9990
Reenqueueing errored packet 293001 at time 9990
Additional hops: 163437
Adding flit 325829 as NACK at time 9990
Additional hops: 163444
Adding flit 308856 as NACK at time 9990
Reenqueueing errored packet 339258 at time 9991
Additional hops: 163453
Adding flit 305723 as NACK at time 9991
Additional hops: 163454
Adding flit 323642 as NACK at time 9991
Reenqueueing errored packet 241955 at time 9992
Reenqueueing errored packet 344311 at time 9992
Additional hops: 163461
Adding flit 367771 as NACK at time 9992
Additional hops: 163466
Adding flit 322259 as NACK at time 9992
Reenqueueing errored packet 290988 at time 9993
Additional hops: 163473
Adding flit 324335 as NACK at time 9993
Reenqueueing errored packet 302666 at time 9994
Reenqueueing errored packet 306220 at time 9994
Additional hops: 163480
Adding flit 320345 as NACK at time 9994
Additional hops: 163488
Adding flit 230200 as NACK at time 9995
Reenqueueing errored packet 350748 at time 9996
Additional hops: 163495
Adding flit 245537 as NACK at time 9996
Additional hops: 163503
Adding flit 246605 as NACK at time 9996
Reenqueueing errored packet 370031 at time 9997
Additional hops: 163511
Adding flit 247757 as NACK at time 9997
Additional hops: 163518
Adding flit 244778 as NACK at time 9997
Additional hops: 163532
Adding flit 287437 as NACK at time 9997
Additional hops: 163544
Adding flit 329250 as NACK at time 9998
Additional hops: 163551
Adding flit 312296 as NACK at time 9998
Additional hops: 163555
Adding flit 320954 as NACK at time 9999
Additional hops: 163560
Adding flit 350706 as NACK at time 9999
Additional hops: 163576
Adding flit 251839 as NACK at time 9999
Additional hops: 163583
Adding flit 347250 as NACK at time 9999
Class 0:
Packet latency average = 1072.89
	minimum = 5
	maximum = 8428
Network latency average = 1014.47
	minimum = 5
	maximum = 5225
Slowest packet = 193
Flit latency average = 1014.47
	minimum = 5
	maximum = 5225
Slowest flit = 196668
Fragmentation average = 0
	minimum = 0
	maximum = 0
Injected packet rate average = 0.610378
	minimum = 0.4916 (at node 6)
	maximum = 0.701 (at node 59)
Accepted packet rate average = 0.506153
	minimum = 0.4837 (at node 21)
	maximum = 0.5295 (at node 56)
Injected flit rate average = 0.610378
	minimum = 0.4916 (at node 6)
	maximum = 0.701 (at node 59)
Accepted flit rate average= 0.506153
	minimum = 0.4837 (at node 21)
	maximum = 0.5295 (at node 56)
Injected packet length average = 1
Accepted packet length average = 1
Total in-flight flits = 69329 (0 measured)
latency change    = 1
throughput change = 1
Average latency for class 0 exceeded 500 cycles. Aborting simulation.
Too many sample periods needed to converge
Simulation unstable, ending ...
Total run time 97.2006
