BEGIN Configuration File: examples/ecc_mesh88_config_0_0.250_packet_3
// $Id$

// Copyright (c) 2007-2015, Trustees of The Leland Stanford Junior University
// All rights reserved.
//
// Redistribution and use in source and binary forms, with or without
// modification, are permitted provided that the following conditions are met:
//
// Redistributions of source code must retain the above copyright notice, this
// list of conditions and the following disclaimer.
// Redistributions in binary form must reproduce the above copyright notice,
// this list of conditions and the following disclaimer in the documentation
// and/or other materials provided with the distribution.
//
// THIS SOFTWARE IS PROVIDED BY THE COPYRIGHT HOLDERS AND CONTRIBUTORS "AS IS"
// AND ANY EXPRESS OR IMPLIED WARRANTIES, INCLUDING, BUT NOT LIMITED TO, THE
// IMPLIED WARRANTIES OF MERCHANTABILITY AND FITNESS FOR A PARTICULAR PURPOSE
// ARE DISCLAIMED. IN NO EVENT SHALL THE COPYRIGHT OWNER OR CONTRIBUTORS BE
// LIABLE FOR ANY DIRECT, INDIRECT, INCIDENTAL, SPECIAL, EXEMPLARY, OR
// CONSEQUENTIAL DAMAGES (INCLUDING, BUT NOT LIMITED TO, PROCUREMENT OF
// SUBSTITUTE GOODS OR SERVICES; LOSS OF USE, DATA, OR PROFITS; OR BUSINESS
// INTERRUPTION) HOWEVER CAUSED AND ON ANY THEORY OF LIABILITY, WHETHER IN
// CONTRACT, STRICT LIABILITY, OR TORT (INCLUDING NEGLIGENCE OR OTHERWISE)
// ARISING IN ANY WAY OUT OF THE USE OF THIS SOFTWARE, EVEN IF ADVISED OF THE
// POSSIBILITY OF SUCH DAMAGE.

// Dragonfly
//




vc_buf_size = 256;


wait_for_tail_credit = 0;

//
// Router architecture
//
vc_allocator = separable_input_first; 
sw_allocator = separable_input_first;
alloc_iters  = 1;

credit_delay   = 2;
routing_delay  = 0;
vc_alloc_delay = 1;
sw_alloc_delay = 1;
st_final_delay = 1;

input_speedup     = 1;
output_speedup    = 1;
internal_speedup  = 2.0;


warmup_periods = 3;
sim_count          = 1;

sample_period  = 10000;  


routing_function = dor;
num_vcs     = 2;

priority = none;
traffic       = uniform; 

injection_rate = 0.25;
packet_size = 1;
injection_rate_uses_flits=1;

topology = mesh;

k  = 8;
n  = 2;

fer = 3;
ecc = link;
correctable = 0;

watch_out=-;
watch_file = watch.txt;

ecc = packet;

stats_out = examples/ecc_mesh88_config_0_0.250_packet_3.m;

END Configuration File: examples/ecc_mesh88_config_0_0.250_packet_3
Additional hops: 7
Adding flit 430 as NACK at time 51
Additional hops: 16
Adding flit 350 as NACK at time 51
Additional hops: 23
Adding flit 458 as NACK at time 54
Additional hops: 28
Adding flit 572 as NACK at time 57
Reenqueueing errored packet 430 at time 66
Reenqueueing errored packet 572 at time 68
Reenqueueing errored packet 458 at time 69
Reenqueueing errored packet 350 at time 70
Additional hops: 33
Adding flit 826 as NACK at time 72
Additional hops: 41
Adding flit 775 as NACK at time 76
Reenqueueing errored packet 826 at time 83
Additional hops: 46
Adding flit 1027 as NACK at time 83
Additional hops: 56
Adding flit 863 as NACK at time 90
Reenqueueing errored packet 775 at time 93
Reenqueueing errored packet 1027 at time 94
Additional hops: 61
Adding flit 1399 as NACK at time 107
Additional hops: 71
Adding flit 1184 as NACK at time 108
Additional hops: 78
Adding flit 1383 as NACK at time 110
Reenqueueing errored packet 863 at time 111
Reenqueueing errored packet 1399 at time 118
Additional hops: 89
Adding flit 1326 as NACK at time 119
Reenqueueing errored packet 1383 at time 125
Additional hops: 100
Adding flit 1463 as NACK at time 128
Reenqueueing errored packet 1184 at time 129
Reenqueueing errored packet 1326 at time 142
Additional hops: 103
Adding flit 2065 as NACK at time 143
Additional hops: 110
Adding flit 1934 as NACK at time 148
Reenqueueing errored packet 2065 at time 150
Reenqueueing errored packet 1463 at time 151
Reenqueueing errored packet 1934 at time 163
Additional hops: 117
Adding flit 2383 as NACK at time 175
Additional hops: 122
Adding flit 2494 as NACK at time 176
Reenqueueing errored packet 2494 at time 187
Reenqueueing errored packet 2383 at time 190
Additional hops: 131
Adding flit 2636 as NACK at time 198
Additional hops: 138
Adding flit 2790 as NACK at time 200
Reenqueueing errored packet 2790 at time 215
Reenqueueing errored packet 2636 at time 217
Additional hops: 142
Adding flit 3411 as NACK at time 231
Additional hops: 144
Adding flit 3679 as NACK at time 239
Reenqueueing errored packet 3411 at time 240
Additional hops: 149
Adding flit 3535 as NACK at time 241
Additional hops: 155
Adding flit 3506 as NACK at time 243
Reenqueueing errored packet 3679 at time 244
Additional hops: 164
Adding flit 3418 as NACK at time 247
Additional hops: 170
Adding flit 3643 as NACK at time 249
Reenqueueing errored packet 3535 at time 252
Reenqueueing errored packet 3506 at time 256
Reenqueueing errored packet 3643 at time 262
Reenqueueing errored packet 3418 at time 266
Additional hops: 173
Adding flit 4422 as NACK at time 287
Reenqueueing errored packet 4422 at time 294
Additional hops: 181
Adding flit 4286 as NACK at time 296
Additional hops: 185
Adding flit 4519 as NACK at time 296
Additional hops: 192
Adding flit 4356 as NACK at time 299
Reenqueueing errored packet 4519 at time 305
Reenqueueing errored packet 4286 at time 313
Reenqueueing errored packet 4356 at time 314
Additional hops: 200
Adding flit 4620 as NACK at time 317
Additional hops: 208
Adding flit 4765 as NACK at time 323
Reenqueueing errored packet 4620 at time 334
Additional hops: 214
Adding flit 5044 as NACK at time 335
Reenqueueing errored packet 4765 at time 340
Reenqueueing errored packet 5044 at time 348
Additional hops: 223
Adding flit 5553 as NACK at time 377
Additional hops: 226
Adding flit 5872 as NACK at time 377
Reenqueueing errored packet 5872 at time 384
Additional hops: 234
Adding flit 5888 as NACK at time 393
Reenqueueing errored packet 5553 at time 396
Additional hops: 242
Adding flit 6110 as NACK at time 409
Reenqueueing errored packet 5888 at time 410
Additional hops: 250
Adding flit 6138 as NACK at time 410
Reenqueueing errored packet 6110 at time 426
Reenqueueing errored packet 6138 at time 427
Additional hops: 257
Adding flit 6491 as NACK at time 429
Additional hops: 267
Adding flit 6337 as NACK at time 430
Additional hops: 273
Adding flit 6728 as NACK at time 441
Reenqueueing errored packet 6491 at time 444
Reenqueueing errored packet 6337 at time 451
Additional hops: 278
Adding flit 6956 as NACK at time 452
Reenqueueing errored packet 6728 at time 454
Reenqueueing errored packet 6956 at time 463
Additional hops: 287
Adding flit 6933 as NACK at time 465
Additional hops: 293
Adding flit 7121 as NACK at time 467
Additional hops: 300
Adding flit 7189 as NACK at time 472
Additional hops: 307
Adding flit 7219 as NACK at time 474
Reenqueueing errored packet 7121 at time 480
Reenqueueing errored packet 6933 at time 484
Reenqueueing errored packet 7189 at time 487
Reenqueueing errored packet 7219 at time 489
Additional hops: 312
Adding flit 7582 as NACK at time 490
Additional hops: 320
Adding flit 7494 as NACK at time 495
Additional hops: 331
Adding flit 7383 as NACK at time 497
Additional hops: 341
Adding flit 7478 as NACK at time 500
Reenqueueing errored packet 7582 at time 501
Reenqueueing errored packet 7494 at time 512
Additional hops: 344
Adding flit 8078 as NACK at time 515
Additional hops: 354
Adding flit 7736 as NACK at time 515
Reenqueueing errored packet 7383 at time 520
Reenqueueing errored packet 7478 at time 521
Reenqueueing errored packet 8078 at time 522
Additional hops: 362
Adding flit 8003 as NACK at time 527
Additional hops: 364
Adding flit 8397 as NACK at time 531
Reenqueueing errored packet 8397 at time 536
Reenqueueing errored packet 7736 at time 536
Reenqueueing errored packet 8003 at time 544
Additional hops: 371
Adding flit 8453 as NACK at time 552
Additional hops: 381
Adding flit 8391 as NACK at time 556
Additional hops: 390
Adding flit 8619 as NACK at time 566
Reenqueueing errored packet 8453 at time 567
Additional hops: 401
Adding flit 8567 as NACK at time 568
Reenqueueing errored packet 8391 at time 577
Additional hops: 406
Adding flit 9037 as NACK at time 580
Reenqueueing errored packet 8619 at time 585
Additional hops: 414
Adding flit 9040 as NACK at time 590
Reenqueueing errored packet 9037 at time 591
Reenqueueing errored packet 8567 at time 591
Reenqueueing errored packet 9040 at time 607
Additional hops: 420
Adding flit 9430 as NACK at time 610
Additional hops: 438
Adding flit 8619 as NACK at time 615
Additional hops: 444
Adding flit 9563 as NACK at time 620
Additional hops: 446
Adding flit 9813 as NACK at time 622
Additional hops: 457
Adding flit 9398 as NACK at time 622
Reenqueueing errored packet 9430 at time 623
Reenqueueing errored packet 9813 at time 627
Reenqueueing errored packet 9563 at time 633
Additional hops: 463
Adding flit 9904 as NACK at time 643
Reenqueueing errored packet 9398 at time 645
Additional hops: 471
Adding flit 9913 as NACK at time 645
Reenqueueing errored packet 8619 at time 652
Additional hops: 477
Adding flit 10151 as NACK at time 655
Reenqueueing errored packet 9904 at time 656
Additional hops: 483
Adding flit 10154 as NACK at time 656
Additional hops: 487
Adding flit 10325 as NACK at time 659
Reenqueueing errored packet 9913 at time 662
Reenqueueing errored packet 10325 at time 668
Reenqueueing errored packet 10151 at time 668
Reenqueueing errored packet 10154 at time 669
Additional hops: 493
Adding flit 10426 as NACK at time 670
Additional hops: 503
Adding flit 10303 as NACK at time 680
Reenqueueing errored packet 10426 at time 683
Additional hops: 510
Adding flit 10655 as NACK at time 690
Additional hops: 524
Adding flit 10398 as NACK at time 694
Additional hops: 528
Adding flit 10905 as NACK at time 694
Additional hops: 534
Adding flit 10855 as NACK at time 697
Reenqueueing errored packet 10303 at time 701
Reenqueueing errored packet 10905 at time 703
Reenqueueing errored packet 10655 at time 705
Reenqueueing errored packet 10855 at time 710
Additional hops: 538
Adding flit 11303 as NACK at time 719
Additional hops: 550
Adding flit 10900 as NACK at time 720
Reenqueueing errored packet 10398 at time 723
Reenqueueing errored packet 11303 at time 728
Additional hops: 556
Adding flit 11462 as NACK at time 736
Additional hops: 564
Adding flit 11363 as NACK at time 737
Reenqueueing errored packet 10900 at time 745
Reenqueueing errored packet 11462 at time 749
Reenqueueing errored packet 11363 at time 754
Additional hops: 570
Adding flit 11871 as NACK at time 762
Reenqueueing errored packet 11871 at time 775
Additional hops: 581
Adding flit 11847 as NACK at time 779
Additional hops: 587
Adding flit 12125 as NACK at time 781
Additional hops: 593
Adding flit 12275 as NACK at time 790
Additional hops: 603
Adding flit 12106 as NACK at time 791
Additional hops: 608
Adding flit 12363 as NACK at time 791
Reenqueueing errored packet 12125 at time 794
Additional hops: 613
Adding flit 12535 as NACK at time 801
Reenqueueing errored packet 12363 at time 802
Reenqueueing errored packet 11847 at time 802
Reenqueueing errored packet 12275 at time 803
Additional hops: 621
Adding flit 12495 as NACK at time 808
Additional hops: 629
Adding flit 12559 as NACK at time 811
Reenqueueing errored packet 12535 at time 812
Reenqueueing errored packet 12106 at time 812
Additional hops: 632
Adding flit 12851 as NACK at time 813
Reenqueueing errored packet 12851 at time 820
Reenqueueing errored packet 12495 at time 825
Reenqueueing errored packet 12559 at time 828
Additional hops: 637
Adding flit 12983 as NACK at time 828
Additional hops: 643
Adding flit 13003 as NACK at time 832
Reenqueueing errored packet 12983 at time 839
Additional hops: 646
Adding flit 13267 as NACK at time 843
Additional hops: 653
Adding flit 13146 as NACK at time 844
Reenqueueing errored packet 13003 at time 845
Additional hops: 661
Adding flit 13130 as NACK at time 846
Additional hops: 668
Adding flit 13205 as NACK at time 849
Reenqueueing errored packet 13267 at time 850
Additional hops: 671
Adding flit 13534 as NACK at time 858
Reenqueueing errored packet 13146 at time 859
Additional hops: 677
Adding flit 13444 as NACK at time 861
Reenqueueing errored packet 13130 at time 863
Reenqueueing errored packet 13205 at time 864
Reenqueueing errored packet 13534 at time 865
Reenqueueing errored packet 13444 at time 874
Additional hops: 687
Adding flit 13517 as NACK at time 878
Additional hops: 693
Adding flit 13845 as NACK at time 886
Additional hops: 699
Adding flit 13926 as NACK at time 891
Additional hops: 707
Adding flit 13833 as NACK at time 892
Reenqueueing errored packet 13845 at time 899
Reenqueueing errored packet 13517 at time 899
Reenqueueing errored packet 13926 at time 904
Additional hops: 711
Adding flit 14245 as NACK at time 905
Additional hops: 719
Adding flit 14099 as NACK at time 908
Reenqueueing errored packet 13833 at time 909
Reenqueueing errored packet 14245 at time 914
Additional hops: 731
Adding flit 13971 as NACK at time 914
Additional hops: 744
Adding flit 14029 as NACK at time 919
Reenqueueing errored packet 14099 at time 925
Additional hops: 752
Adding flit 14603 as NACK at time 938
Reenqueueing errored packet 13971 at time 939
Additional hops: 759
Adding flit 14681 as NACK at time 939
Reenqueueing errored packet 14029 at time 946
Reenqueueing errored packet 14681 at time 954
Reenqueueing errored packet 14603 at time 955
Additional hops: 765
Adding flit 15032 as NACK at time 961
Additional hops: 773
Adding flit 15071 as NACK at time 969
Additional hops: 777
Adding flit 15295 as NACK at time 970
Reenqueueing errored packet 15032 at time 974
Additional hops: 783
Adding flit 15260 as NACK at time 974
Additional hops: 795
Adding flit 14969 as NACK at time 974
Reenqueueing errored packet 15295 at time 979
Reenqueueing errored packet 15071 at time 986
Reenqueueing errored packet 15260 at time 987
Reenqueueing errored packet 14969 at time 999
Additional hops: 803
Adding flit 15597 as NACK at time 1004
Additional hops: 814
Adding flit 15602 as NACK at time 1017
Reenqueueing errored packet 15597 at time 1021
Additional hops: 819
Adding flit 16064 as NACK at time 1022
Reenqueueing errored packet 16064 at time 1033
Reenqueueing errored packet 15602 at time 1040
Additional hops: 830
Adding flit 16211 as NACK at time 1049
Additional hops: 834
Adding flit 16593 as NACK at time 1050
Additional hops: 845
Adding flit 16310 as NACK at time 1054
Reenqueueing errored packet 16593 at time 1059
Reenqueueing errored packet 16211 at time 1072
Reenqueueing errored packet 16310 at time 1077
Additional hops: 850
Adding flit 17475 as NACK at time 1111
Additional hops: 858
Adding flit 17344 as NACK at time 1114
Additional hops: 869
Adding flit 17314 as NACK at time 1120
Additional hops: 879
Adding flit 17355 as NACK at time 1121
Reenqueueing errored packet 17475 at time 1122
Additional hops: 887
Adding flit 17552 as NACK at time 1125
Reenqueueing errored packet 17344 at time 1131
Reenqueueing errored packet 17552 at time 1142
Reenqueueing errored packet 17355 at time 1142
Additional hops: 895
Adding flit 17792 as NACK at time 1142
Reenqueueing errored packet 17314 at time 1143
Additional hops: 902
Adding flit 18035 as NACK at time 1151
Reenqueueing errored packet 17792 at time 1159
Reenqueueing errored packet 18035 at time 1166
Additional hops: 912
Adding flit 18131 as NACK at time 1169
Additional hops: 915
Adding flit 18592 as NACK at time 1173
Additional hops: 921
Adding flit 18430 as NACK at time 1175
Reenqueueing errored packet 18592 at time 1180
Reenqueueing errored packet 18430 at time 1188
Reenqueueing errored packet 18131 at time 1190
Additional hops: 928
Adding flit 18800 as NACK at time 1200
Additional hops: 938
Adding flit 18635 as NACK at time 1200
Additional hops: 947
Adding flit 18707 as NACK at time 1201
Additional hops: 962
Adding flit 18543 as NACK at time 1206
Additional hops: 969
Adding flit 18987 as NACK at time 1210
Reenqueueing errored packet 18800 at time 1215
Reenqueueing errored packet 18707 at time 1220
Reenqueueing errored packet 18635 at time 1221
Additional hops: 976
Adding flit 19168 as NACK at time 1222
Additional hops: 985
Adding flit 19075 as NACK at time 1223
Reenqueueing errored packet 18987 at time 1225
Reenqueueing errored packet 19168 at time 1237
Reenqueueing errored packet 18543 at time 1237
Additional hops: 990
Adding flit 19532 as NACK at time 1239
Additional hops: 999
Adding flit 19341 as NACK at time 1241
Reenqueueing errored packet 19075 at time 1242
Additional hops: 1009
Adding flit 19374 as NACK at time 1247
Reenqueueing errored packet 19532 at time 1250
Reenqueueing errored packet 19341 at time 1260
Reenqueueing errored packet 19374 at time 1268
Additional hops: 1015
Adding flit 20035 as NACK at time 1275
Reenqueueing errored packet 20035 at time 1288
Additional hops: 1026
Adding flit 20003 as NACK at time 1288
Additional hops: 1038
Adding flit 20063 as NACK at time 1293
Reenqueueing errored packet 20003 at time 1311
Additional hops: 1045
Adding flit 20598 as NACK at time 1312
Reenqueueing errored packet 20063 at time 1318
Reenqueueing errored packet 20598 at time 1327
Additional hops: 1056
Adding flit 20665 as NACK at time 1329
Additional hops: 1064
Adding flit 20814 as NACK at time 1329
Additional hops: 1066
Adding flit 21244 as NACK at time 1338
Additional hops: 1074
Adding flit 21008 as NACK at time 1342
Reenqueueing errored packet 21244 at time 1343
Reenqueueing errored packet 20814 at time 1346
Additional hops: 1085
Adding flit 20948 as NACK at time 1347
Reenqueueing errored packet 20665 at time 1352
Additional hops: 1095
Adding flit 21052 as NACK at time 1352
Additional hops: 1102
Adding flit 21337 as NACK at time 1358
Reenqueueing errored packet 21008 at time 1359
Additional hops: 1113
Adding flit 21158 as NACK at time 1362
Additional hops: 1121
Adding flit 21468 as NACK at time 1369
Reenqueueing errored packet 20948 at time 1370
Additional hops: 1124
Adding flit 21707 as NACK at time 1371
Reenqueueing errored packet 21337 at time 1373
Reenqueueing errored packet 21052 at time 1373
Reenqueueing errored packet 21707 at time 1378
Additional hops: 1136
Adding flit 21420 as NACK at time 1378
Additional hops: 1143
Adding flit 21690 as NACK at time 1382
Additional hops: 1148
Adding flit 21798 as NACK at time 1383
Reenqueueing errored packet 21158 at time 1385
Reenqueueing errored packet 21468 at time 1386
Additional hops: 1151
Adding flit 22006 as NACK at time 1390
Additional hops: 1158
Adding flit 21749 as NACK at time 1392
Reenqueueing errored packet 21798 at time 1394
Additional hops: 1168
Adding flit 21727 as NACK at time 1394
Reenqueueing errored packet 22006 at time 1397
Reenqueueing errored packet 21690 at time 1397
Reenqueueing errored packet 21420 at time 1403
Reenqueueing errored packet 21749 at time 1407
Additional hops: 1171
Adding flit 22305 as NACK at time 1408
Reenqueueing errored packet 22305 at time 1415
Reenqueueing errored packet 21727 at time 1415
Additional hops: 1175
Adding flit 22535 as NACK at time 1426
Additional hops: 1184
Adding flit 22266 as NACK at time 1426
Reenqueueing errored packet 22535 at time 1435
Additional hops: 1193
Adding flit 22457 as NACK at time 1436
Reenqueueing errored packet 22266 at time 1445
Additional hops: 1202
Adding flit 22630 as NACK at time 1449
Reenqueueing errored packet 22457 at time 1455
Additional hops: 1208
Adding flit 22937 as NACK at time 1460
Additional hops: 1213
Adding flit 23052 as NACK at time 1463
Additional hops: 1216
Adding flit 23169 as NACK at time 1465
Reenqueueing errored packet 22630 at time 1468
Additional hops: 1224
Adding flit 22988 as NACK at time 1468
Reenqueueing errored packet 23169 at time 1472
Reenqueueing errored packet 22937 at time 1473
Reenqueueing errored packet 23052 at time 1474
Reenqueueing errored packet 22988 at time 1485
Additional hops: 1233
Adding flit 23318 as NACK at time 1490
Additional hops: 1237
Adding flit 23651 as NACK at time 1498
Reenqueueing errored packet 23651 at time 1507
Reenqueueing errored packet 23318 at time 1509
Additional hops: 1242
Adding flit 23865 as NACK at time 1516
Additional hops: 1248
Adding flit 23868 as NACK at time 1517
Additional hops: 1255
Adding flit 23955 as NACK at time 1526
Reenqueueing errored packet 23865 at time 1527
Reenqueueing errored packet 23868 at time 1530
Additional hops: 1260
Adding flit 24175 as NACK at time 1533
Additional hops: 1266
Adding flit 24145 as NACK at time 1534
Reenqueueing errored packet 23955 at time 1541
Reenqueueing errored packet 24175 at time 1544
Reenqueueing errored packet 24145 at time 1547
Additional hops: 1269
Adding flit 24503 as NACK at time 1547
Additional hops: 1280
Adding flit 24085 as NACK at time 1547
Reenqueueing errored packet 24503 at time 1554
Additional hops: 1290
Adding flit 24438 as NACK at time 1567
Reenqueueing errored packet 24085 at time 1570
Reenqueueing errored packet 24438 at time 1588
Additional hops: 1296
Adding flit 25034 as NACK at time 1591
Reenqueueing errored packet 25034 at time 1604
Additional hops: 1299
Adding flit 25428 as NACK at time 1605
Additional hops: 1304
Adding flit 25414 as NACK at time 1611
Reenqueueing errored packet 25428 at time 1612
Reenqueueing errored packet 25414 at time 1622
Additional hops: 1310
Adding flit 25565 as NACK at time 1623
Reenqueueing errored packet 25565 at time 1636
Additional hops: 1315
Adding flit 25918 as NACK at time 1642
Additional hops: 1319
Adding flit 26129 as NACK at time 1651
Reenqueueing errored packet 25918 at time 1653
Additional hops: 1328
Adding flit 25900 as NACK at time 1654
Additional hops: 1336
Adding flit 25951 as NACK at time 1654
Additional hops: 1346
Adding flit 25902 as NACK at time 1656
Additional hops: 1358
Adding flit 25824 as NACK at time 1657
Reenqueueing errored packet 26129 at time 1660
Additional hops: 1364
Adding flit 26217 as NACK at time 1664
Reenqueueing errored packet 25951 at time 1671
Reenqueueing errored packet 25900 at time 1673
Additional hops: 1370
Adding flit 26353 as NACK at time 1673
Reenqueueing errored packet 26217 at time 1677
Reenqueueing errored packet 25902 at time 1677
Additional hops: 1383
Adding flit 26096 as NACK at time 1678
Reenqueueing errored packet 25824 at time 1682
Reenqueueing errored packet 26353 at time 1686
Additional hops: 1393
Adding flit 26351 as NACK at time 1688
Additional hops: 1397
Adding flit 26762 as NACK at time 1689
Additional hops: 1405
Adding flit 26499 as NACK at time 1692
Additional hops: 1410
Adding flit 26858 as NACK at time 1695
Reenqueueing errored packet 26762 at time 1698
Additional hops: 1420
Adding flit 26669 as NACK at time 1699
Reenqueueing errored packet 26096 at time 1705
Reenqueueing errored packet 26858 at time 1706
Reenqueueing errored packet 26499 at time 1709
Reenqueueing errored packet 26351 at time 1709
Additional hops: 1427
Adding flit 27014 as NACK at time 1711
Reenqueueing errored packet 26669 at time 1720
Additional hops: 1431
Adding flit 27320 as NACK at time 1720
Reenqueueing errored packet 27014 at time 1726
Additional hops: 1436
Adding flit 27372 as NACK at time 1728
Reenqueueing errored packet 27320 at time 1729
Reenqueueing errored packet 27372 at time 1739
Additional hops: 1444
Adding flit 27720 as NACK at time 1756
Reenqueueing errored packet 27720 at time 1773
Additional hops: 1448
Adding flit 28296 as NACK at time 1782
Additional hops: 1453
Adding flit 28300 as NACK at time 1783
Additional hops: 1459
Adding flit 28337 as NACK at time 1790
Additional hops: 1467
Adding flit 28259 as NACK at time 1790
Reenqueueing errored packet 28296 at time 1791
Reenqueueing errored packet 28300 at time 1794
Additional hops: 1472
Adding flit 28547 as NACK at time 1801
Reenqueueing errored packet 28337 at time 1803
Additional hops: 1479
Adding flit 28508 as NACK at time 1804
Additional hops: 1485
Adding flit 28596 as NACK at time 1806
Reenqueueing errored packet 28259 at time 1807
Reenqueueing errored packet 28547 at time 1812
Additional hops: 1494
Adding flit 28613 as NACK at time 1816
Additional hops: 1499
Adding flit 28778 as NACK at time 1816
Reenqueueing errored packet 28596 at time 1819
Reenqueueing errored packet 28508 at time 1819
Additional hops: 1508
Adding flit 28659 as NACK at time 1821
Reenqueueing errored packet 28778 at time 1827
Reenqueueing errored packet 28613 at time 1835
Reenqueueing errored packet 28659 at time 1840
Additional hops: 1512
Adding flit 29574 as NACK at time 1863
Reenqueueing errored packet 29574 at time 1872
Additional hops: 1522
Adding flit 29726 as NACK at time 1890
Additional hops: 1527
Adding flit 29999 as NACK at time 1893
Reenqueueing errored packet 29999 at time 1904
Additional hops: 1529
Adding flit 30399 as NACK at time 1907
Additional hops: 1534
Adding flit 30220 as NACK at time 1908
Reenqueueing errored packet 29726 at time 1911
Reenqueueing errored packet 30399 at time 1912
Reenqueueing errored packet 30220 at time 1919
Additional hops: 1541
Adding flit 30355 as NACK at time 1919
Additional hops: 1550
Adding flit 30507 as NACK at time 1933
Reenqueueing errored packet 30355 at time 1934
Additional hops: 1561
Adding flit 30416 as NACK at time 1936
Additional hops: 1568
Adding flit 30788 as NACK at time 1945
Reenqueueing errored packet 30507 at time 1952
Reenqueueing errored packet 30416 at time 1959
Reenqueueing errored packet 30788 at time 1960
Additional hops: 1578
Adding flit 31088 as NACK at time 1975
Additional hops: 1584
Adding flit 31512 as NACK at time 1987
Reenqueueing errored packet 31088 at time 1996
Additional hops: 1589
Adding flit 31704 as NACK at time 1997
Additional hops: 1592
Adding flit 31810 as NACK at time 1998
Reenqueueing errored packet 31512 at time 2000
Additional hops: 1595
Adding flit 31858 as NACK at time 2002
Reenqueueing errored packet 31810 at time 2005
Reenqueueing errored packet 31704 at time 2008
Reenqueueing errored packet 31858 at time 2009
Additional hops: 1600
Adding flit 31945 as NACK at time 2013
Additional hops: 1607
Adding flit 31970 as NACK at time 2023
Reenqueueing errored packet 31945 at time 2024
Additional hops: 1618
Adding flit 31882 as NACK at time 2029
Reenqueueing errored packet 31970 at time 2038
Additional hops: 1622
Adding flit 32471 as NACK at time 2047
Reenqueueing errored packet 31882 at time 2052
Reenqueueing errored packet 32471 at time 2056
Additional hops: 1629
Adding flit 32488 as NACK at time 2058
Additional hops: 1636
Adding flit 32531 as NACK at time 2058
Additional hops: 1641
Adding flit 32664 as NACK at time 2058
Additional hops: 1652
Adding flit 32401 as NACK at time 2062
Reenqueueing errored packet 32664 at time 2069
Additional hops: 1658
Adding flit 32795 as NACK at time 2070
Reenqueueing errored packet 32531 at time 2073
Reenqueueing errored packet 32488 at time 2073
Additional hops: 1669
Adding flit 32558 as NACK at time 2075
Additional hops: 1675
Adding flit 32931 as NACK at time 2080
Additional hops: 1683
Adding flit 32884 as NACK at time 2082
Reenqueueing errored packet 32795 at time 2083
Reenqueueing errored packet 32401 at time 2085
Additional hops: 1690
Adding flit 33060 as NACK at time 2090
Additional hops: 1699
Adding flit 32972 as NACK at time 2091
Reenqueueing errored packet 32931 at time 2093
Reenqueueing errored packet 32558 at time 2098
Reenqueueing errored packet 32884 at time 2099
Additional hops: 1703
Adding flit 33333 as NACK at time 2099
Reenqueueing errored packet 33060 at time 2105
Reenqueueing errored packet 33333 at time 2108
Reenqueueing errored packet 32972 at time 2110
Additional hops: 1710
Adding flit 33638 as NACK at time 2125
Additional hops: 1713
Adding flit 33844 as NACK at time 2127
Additional hops: 1716
Adding flit 33856 as NACK at time 2128
Reenqueueing errored packet 33844 at time 2134
Additional hops: 1722
Adding flit 33810 as NACK at time 2134
Reenqueueing errored packet 33856 at time 2135
Reenqueueing errored packet 33638 at time 2140
Reenqueueing errored packet 33810 at time 2147
Additional hops: 1725
Adding flit 34369 as NACK at time 2160
Reenqueueing errored packet 34369 at time 2167
Additional hops: 1733
Adding flit 34248 as NACK at time 2171
Additional hops: 1737
Adding flit 34507 as NACK at time 2173
Reenqueueing errored packet 34507 at time 2182
Reenqueueing errored packet 34248 at time 2188
Additional hops: 1748
Adding flit 34378 as NACK at time 2189
Additional hops: 1757
Adding flit 34561 as NACK at time 2194
Additional hops: 1766
Adding flit 34635 as NACK at time 2196
Additional hops: 1780
Adding flit 34559 as NACK at time 2208
Additional hops: 1788
Adding flit 34889 as NACK at time 2210
Reenqueueing errored packet 34378 at time 2212
Reenqueueing errored packet 34561 at time 2213
Additional hops: 1790
Adding flit 35277 as NACK at time 2213
Reenqueueing errored packet 34635 at time 2215
Reenqueueing errored packet 35277 at time 2218
Additional hops: 1796
Adding flit 35214 as NACK at time 2224
Reenqueueing errored packet 34889 at time 2227
Additional hops: 1806
Adding flit 35224 as NACK at time 2235
Reenqueueing errored packet 35214 at time 2237
Reenqueueing errored packet 34559 at time 2237
Additional hops: 1818
Adding flit 35118 as NACK at time 2240
Additional hops: 1825
Adding flit 35487 as NACK at time 2241
Additional hops: 1836
Adding flit 35424 as NACK at time 2250
Reenqueueing errored packet 35487 at time 2256
Reenqueueing errored packet 35224 at time 2256
Reenqueueing errored packet 35118 at time 2265
Reenqueueing errored packet 35424 at time 2273
Additional hops: 1847
Adding flit 35881 as NACK at time 2282
Additional hops: 1851
Adding flit 36380 as NACK at time 2291
Reenqueueing errored packet 36380 at time 2300
Reenqueueing errored packet 35881 at time 2305
Additional hops: 1859
Adding flit 36504 as NACK at time 2310
Additional hops: 1866
Adding flit 36553 as NACK at time 2311
Additional hops: 1874
Adding flit 36668 as NACK at time 2320
Additional hops: 1879
Adding flit 36899 as NACK at time 2325
Reenqueueing errored packet 36553 at time 2326
Reenqueueing errored packet 36504 at time 2327
Reenqueueing errored packet 36899 at time 2336
Reenqueueing errored packet 36668 at time 2337
Additional hops: 1887
Adding flit 36992 as NACK at time 2340
Additional hops: 1893
Adding flit 37131 as NACK at time 2344
Additional hops: 1897
Adding flit 37360 as NACK at time 2351
Additional hops: 1913
Adding flit 36504 as NACK at time 2354
Additional hops: 1918
Adding flit 37363 as NACK at time 2354
Reenqueueing errored packet 37131 at time 2357
Reenqueueing errored packet 36992 at time 2357
Reenqueueing errored packet 37360 at time 2360
Reenqueueing errored packet 37363 at time 2365
Additional hops: 1923
Adding flit 37522 as NACK at time 2366
Additional hops: 1927
Adding flit 37655 as NACK at time 2371
Reenqueueing errored packet 37522 at time 2377
Additional hops: 1934
Adding flit 37616 as NACK at time 2377
Additional hops: 1938
Adding flit 37768 as NACK at time 2378
Reenqueueing errored packet 37655 at time 2380
Reenqueueing errored packet 37768 at time 2387
Reenqueueing errored packet 36504 at time 2387
Reenqueueing errored packet 37616 at time 2392
Additional hops: 1948
Adding flit 37720 as NACK at time 2392
Additional hops: 1957
Adding flit 37929 as NACK at time 2401
Additional hops: 1961
Adding flit 38195 as NACK at time 2403
Reenqueueing errored packet 38195 at time 2412
Additional hops: 1966
Adding flit 38290 as NACK at time 2412
Reenqueueing errored packet 37720 at time 2413
Additional hops: 1969
Adding flit 38507 as NACK at time 2417
Reenqueueing errored packet 37929 at time 2420
Reenqueueing errored packet 38290 at time 2423
Reenqueueing errored packet 38507 at time 2424
Additional hops: 1978
Adding flit 38283 as NACK at time 2424
Additional hops: 1984
Adding flit 38558 as NACK at time 2430
Additional hops: 1990
Adding flit 38599 as NACK at time 2433
Reenqueueing errored packet 38558 at time 2443
Reenqueueing errored packet 38283 at time 2443
Reenqueueing errored packet 38599 at time 2446
Additional hops: 1994
Adding flit 39121 as NACK at time 2459
Additional hops: 2003
Adding flit 38898 as NACK at time 2462
Reenqueueing errored packet 39121 at time 2468
Additional hops: 2012
Adding flit 39077 as NACK at time 2473
Reenqueueing errored packet 38898 at time 2481
Additional hops: 2020
Adding flit 39323 as NACK at time 2484
Reenqueueing errored packet 39077 at time 2492
Additional hops: 2030
Adding flit 39417 as NACK at time 2496
Reenqueueing errored packet 39323 at time 2501
Additional hops: 2036
Adding flit 39943 as NACK at time 2514
Additional hops: 2048
Adding flit 39625 as NACK at time 2516
Reenqueueing errored packet 39417 at time 2517
Reenqueueing errored packet 39943 at time 2527
Additional hops: 2059
Adding flit 39890 as NACK at time 2528
Additional hops: 2063
Adding flit 40308 as NACK at time 2531
Additional hops: 2073
Adding flit 40064 as NACK at time 2536
Reenqueueing errored packet 40308 at time 2540
Additional hops: 2080
Adding flit 40260 as NACK at time 2540
Reenqueueing errored packet 39625 at time 2541
Additional hops: 2086
Adding flit 40415 as NACK at time 2544
Reenqueueing errored packet 39890 at time 2551
Reenqueueing errored packet 40260 at time 2555
Additional hops: 2091
Adding flit 40617 as NACK at time 2556
Reenqueueing errored packet 40415 at time 2557
Reenqueueing errored packet 40064 at time 2557
Reenqueueing errored packet 40617 at time 2567
Additional hops: 2094
Adding flit 40919 as NACK at time 2567
Reenqueueing errored packet 40919 at time 2574
Additional hops: 2098
Adding flit 41632 as NACK at time 2613
Additional hops: 2102
Adding flit 41603 as NACK at time 2613
Additional hops: 2114
Adding flit 41220 as NACK at time 2613
Reenqueueing errored packet 41603 at time 2622
Reenqueueing errored packet 41632 at time 2622
Additional hops: 2124
Adding flit 41531 as NACK at time 2624
Additional hops: 2129
Adding flit 41919 as NACK at time 2637
Reenqueueing errored packet 41220 at time 2638
Additional hops: 2134
Adding flit 42019 as NACK at time 2641
Additional hops: 2143
Adding flit 41814 as NACK at time 2642
Reenqueueing errored packet 41531 at time 2645
Additional hops: 2149
Adding flit 42026 as NACK at time 2645
Reenqueueing errored packet 41919 at time 2648
Additional hops: 2155
Adding flit 42126 as NACK at time 2651
Reenqueueing errored packet 42019 at time 2652
Reenqueueing errored packet 42026 at time 2658
Reenqueueing errored packet 41814 at time 2661
Additional hops: 2163
Adding flit 42198 as NACK at time 2661
Reenqueueing errored packet 42126 at time 2664
Reenqueueing errored packet 42198 at time 2678
Additional hops: 2178
Adding flit 42174 as NACK at time 2682
Additional hops: 2182
Adding flit 42739 as NACK at time 2684
Reenqueueing errored packet 42739 at time 2693
Additional hops: 2186
Adding flit 42939 as NACK at time 2695
Reenqueueing errored packet 42939 at time 2704
Reenqueueing errored packet 42174 at time 2713
Additional hops: 2192
Adding flit 43177 as NACK at time 2718
Additional hops: 2199
Adding flit 43197 as NACK at time 2722
Reenqueueing errored packet 43177 at time 2731
Additional hops: 2205
Adding flit 43500 as NACK at time 2736
Additional hops: 2212
Adding flit 43465 as NACK at time 2736
Reenqueueing errored packet 43197 at time 2737
Additional hops: 2217
Adding flit 43605 as NACK at time 2740
Additional hops: 2226
Adding flit 43571 as NACK at time 2748
Reenqueueing errored packet 43500 at time 2749
Reenqueueing errored packet 43605 at time 2751
Reenqueueing errored packet 43465 at time 2751
Additional hops: 2230
Adding flit 44001 as NACK at time 2762
Reenqueueing errored packet 43571 at time 2767
Reenqueueing errored packet 44001 at time 2771
Additional hops: 2240
Adding flit 43928 as NACK at time 2774
Additional hops: 2243
Adding flit 44394 as NACK at time 2783
Reenqueueing errored packet 44394 at time 2790
Reenqueueing errored packet 43928 at time 2795
Additional hops: 2247
Adding flit 44545 as NACK at time 2795
Additional hops: 2258
Adding flit 44184 as NACK at time 2797
Additional hops: 2267
Adding flit 44365 as NACK at time 2799
Reenqueueing errored packet 44545 at time 2804
Additional hops: 2279
Adding flit 44380 as NACK at time 2808
Additional hops: 2286
Adding flit 44706 as NACK at time 2816
Reenqueueing errored packet 44365 at time 2818
Reenqueueing errored packet 44184 at time 2820
Additional hops: 2289
Adding flit 44999 as NACK at time 2821
Reenqueueing errored packet 44999 at time 2828
Reenqueueing errored packet 44706 at time 2831
Additional hops: 2301
Adding flit 44728 as NACK at time 2832
Reenqueueing errored packet 44380 at time 2833
Additional hops: 2309
Adding flit 45096 as NACK at time 2842
Additional hops: 2317
Adding flit 45246 as NACK at time 2849
Additional hops: 2325
Adding flit 45284 as NACK at time 2854
Additional hops: 2334
Adding flit 45233 as NACK at time 2855
Reenqueueing errored packet 44728 at time 2857
Reenqueueing errored packet 45096 at time 2859
Reenqueueing errored packet 45246 at time 2866
Additional hops: 2337
Adding flit 45794 as NACK at time 2870
Reenqueueing errored packet 45284 at time 2871
Reenqueueing errored packet 45233 at time 2874
Reenqueueing errored packet 45794 at time 2877
Additional hops: 2341
Adding flit 45886 as NACK at time 2879
Additional hops: 2348
Adding flit 45755 as NACK at time 2880
Reenqueueing errored packet 45886 at time 2888
Additional hops: 2352
Adding flit 46111 as NACK at time 2892
Additional hops: 2359
Adding flit 45939 as NACK at time 2892
Reenqueueing errored packet 45755 at time 2895
Additional hops: 2363
Adding flit 46202 as NACK at time 2898
Additional hops: 2365
Adding flit 46302 as NACK at time 2898
Additional hops: 2370
Adding flit 46179 as NACK at time 2899
Reenqueueing errored packet 46111 at time 2901
Reenqueueing errored packet 46302 at time 2903
Reenqueueing errored packet 46202 at time 2907
Reenqueueing errored packet 45939 at time 2907
Additional hops: 2376
Adding flit 46268 as NACK at time 2909
Additional hops: 2383
Adding flit 46249 as NACK at time 2909
Reenqueueing errored packet 46179 at time 2910
Additional hops: 2391
Adding flit 46185 as NACK at time 2911
Reenqueueing errored packet 46268 at time 2922
Reenqueueing errored packet 46249 at time 2924
Reenqueueing errored packet 46185 at time 2928
Additional hops: 2400
Adding flit 46480 as NACK at time 2930
Additional hops: 2412
Adding flit 46384 as NACK at time 2934
Reenqueueing errored packet 46480 at time 2949
Additional hops: 2420
Adding flit 46911 as NACK at time 2952
Additional hops: 2426
Adding flit 47016 as NACK at time 2953
Reenqueueing errored packet 46384 at time 2959
Additional hops: 2430
Adding flit 47230 as NACK at time 2961
Reenqueueing errored packet 47016 at time 2966
Reenqueueing errored packet 46911 at time 2969
Reenqueueing errored packet 47230 at time 2970
Additional hops: 2436
Adding flit 47393 as NACK at time 2976
Additional hops: 2445
Adding flit 47199 as NACK at time 2978
Reenqueueing errored packet 47393 at time 2989
Reenqueueing errored packet 47199 at time 2997
Additional hops: 2452
Adding flit 47675 as NACK at time 3000
Additional hops: 2459
Adding flit 47820 as NACK at time 3008
Reenqueueing errored packet 47675 at time 3015
Additional hops: 2467
Adding flit 47884 as NACK at time 3015
Reenqueueing errored packet 47820 at time 3023
Reenqueueing errored packet 47884 at time 3032
Additional hops: 2471
Adding flit 48549 as NACK at time 3044
Reenqueueing errored packet 48549 at time 3053
Additional hops: 2483
Adding flit 48389 as NACK at time 3057
Additional hops: 2495
Adding flit 48589 as NACK at time 3069
Additional hops: 2503
Adding flit 48854 as NACK at time 3074
Reenqueueing errored packet 48389 at time 3082
Additional hops: 2506
Adding flit 49275 as NACK at time 3088
Reenqueueing errored packet 48854 at time 3091
Reenqueueing errored packet 48589 at time 3094
Reenqueueing errored packet 49275 at time 3095
Additional hops: 2508
Adding flit 49523 as NACK at time 3100
Additional hops: 2511
Adding flit 49442 as NACK at time 3101
Reenqueueing errored packet 49523 at time 3105
Reenqueueing errored packet 49442 at time 3108
Additional hops: 2518
Adding flit 49699 as NACK at time 3126
Additional hops: 2524
Adding flit 49770 as NACK at time 3126
Additional hops: 2534
Adding flit 49535 as NACK at time 3127
Additional hops: 2542
Adding flit 49697 as NACK at time 3130
Reenqueueing errored packet 49770 at time 3139
Reenqueueing errored packet 49699 at time 3141
Additional hops: 2548
Adding flit 50038 as NACK at time 3144
Reenqueueing errored packet 49697 at time 3147
Reenqueueing errored packet 49535 at time 3148
Reenqueueing errored packet 50038 at time 3157
Additional hops: 2552
Adding flit 50666 as NACK at time 3179
Reenqueueing errored packet 50666 at time 3188
Additional hops: 2562
Adding flit 50573 as NACK at time 3190
Additional hops: 2571
Adding flit 50643 as NACK at time 3194
Additional hops: 2580
Adding flit 50664 as NACK at time 3195
Additional hops: 2591
Adding flit 50723 as NACK at time 3204
Additional hops: 2597
Adding flit 51035 as NACK at time 3205
Reenqueueing errored packet 50573 at time 3211
Additional hops: 2598
Adding flit 51380 as NACK at time 3211
Reenqueueing errored packet 50643 at time 3213
Reenqueueing errored packet 51380 at time 3214
Reenqueueing errored packet 50664 at time 3214
Reenqueueing errored packet 51035 at time 3218
Additional hops: 2604
Adding flit 51237 as NACK at time 3218
Reenqueueing errored packet 50723 at time 3227
Additional hops: 2611
Adding flit 51361 as NACK at time 3229
Reenqueueing errored packet 51237 at time 3231
Additional hops: 2615
Adding flit 51690 as NACK at time 3242
Reenqueueing errored packet 51361 at time 3244
Reenqueueing errored packet 51690 at time 3251
Additional hops: 2627
Adding flit 51866 as NACK at time 3278
Additional hops: 2633
Adding flit 52302 as NACK at time 3286
Additional hops: 2640
Adding flit 52295 as NACK at time 3289
Reenqueueing errored packet 52302 at time 3299
Additional hops: 2647
Adding flit 52461 as NACK at time 3299
Reenqueueing errored packet 51866 at time 3303
Reenqueueing errored packet 52295 at time 3304
Reenqueueing errored packet 52461 at time 3314
Additional hops: 2654
Adding flit 52970 as NACK at time 3330
Additional hops: 2663
Adding flit 53024 as NACK at time 3340
Reenqueueing errored packet 52970 at time 3345
Reenqueueing errored packet 53024 at time 3359
Additional hops: 2666
Adding flit 53765 as NACK at time 3368
Additional hops: 2674
Adding flit 53540 as NACK at time 3368
Reenqueueing errored packet 53765 at time 3375
Reenqueueing errored packet 53540 at time 3385
Additional hops: 2678
Adding flit 54037 as NACK at time 3386
Additional hops: 2688
Adding flit 53784 as NACK at time 3393
Additional hops: 2700
Adding flit 53744 as NACK at time 3394
Reenqueueing errored packet 54037 at time 3395
Additional hops: 2709
Adding flit 53943 as NACK at time 3400
Additional hops: 2718
Adding flit 54170 as NACK at time 3411
Reenqueueing errored packet 53784 at time 3414
Additional hops: 2725
Adding flit 54337 as NACK at time 3415
Reenqueueing errored packet 53943 at time 3419
Reenqueueing errored packet 53744 at time 3419
Additional hops: 2730
Adding flit 54605 as NACK at time 3427
Reenqueueing errored packet 54337 at time 3430
Reenqueueing errored packet 54170 at time 3430
Reenqueueing errored packet 54605 at time 3438
Additional hops: 2741
Adding flit 54499 as NACK at time 3438
Reenqueueing errored packet 54499 at time 3461
Additional hops: 2742
Adding flit 55508 as NACK at time 3469
Reenqueueing errored packet 55508 at time 3472
Additional hops: 2751
Adding flit 55159 as NACK at time 3472
Additional hops: 2755
Adding flit 55557 as NACK at time 3483
Additional hops: 2758
Adding flit 55658 as NACK at time 3486
Reenqueueing errored packet 55159 at time 3491
Additional hops: 2767
Adding flit 55422 as NACK at time 3491
Reenqueueing errored packet 55557 at time 3492
Reenqueueing errored packet 55658 at time 3493
Additional hops: 2775
Adding flit 55579 as NACK at time 3494
Reenqueueing errored packet 55422 at time 3510
Reenqueueing errored packet 55579 at time 3511
Additional hops: 2781
Adding flit 56061 as NACK at time 3516
Reenqueueing errored packet 56061 at time 3529
Additional hops: 2790
Adding flit 56170 as NACK at time 3533
Additional hops: 2800
Adding flit 56326 as NACK at time 3547
Reenqueueing errored packet 56170 at time 3552
Additional hops: 2811
Adding flit 56432 as NACK at time 3556
Reenqueueing errored packet 56326 at time 3568
Additional hops: 2824
Adding flit 56664 as NACK at time 3573
Additional hops: 2834
Adding flit 56825 as NACK at time 3578
Reenqueueing errored packet 56432 at time 3579
Additional hops: 2843
Adding flit 56937 as NACK at time 3580
Additional hops: 2854
Adding flit 56869 as NACK at time 3581
Additional hops: 2862
Adding flit 57091 as NACK at time 3585
Additional hops: 2873
Adding flit 57050 as NACK at time 3593
Reenqueueing errored packet 56937 at time 3599
Reenqueueing errored packet 56825 at time 3599
Reenqueueing errored packet 56664 at time 3600
Additional hops: 2877
Adding flit 57513 as NACK at time 3600
Reenqueueing errored packet 57091 at time 3602
Reenqueueing errored packet 56869 at time 3604
Reenqueueing errored packet 57513 at time 3609
Additional hops: 2883
Adding flit 57595 as NACK at time 3613
Reenqueueing errored packet 57050 at time 3616
Additional hops: 2887
Adding flit 57820 as NACK at time 3619
Additional hops: 2898
Adding flit 57549 as NACK at time 3623
Reenqueueing errored packet 57595 at time 3626
Reenqueueing errored packet 57820 at time 3628
Additional hops: 2904
Adding flit 57908 as NACK at time 3631
Additional hops: 2910
Adding flit 58159 as NACK at time 3643
Reenqueueing errored packet 57908 at time 3644
Reenqueueing errored packet 57549 at time 3646
Additional hops: 2914
Adding flit 58329 as NACK at time 3651
Reenqueueing errored packet 58159 at time 3656
Reenqueueing errored packet 58329 at time 3660
Additional hops: 2922
Adding flit 58353 as NACK at time 3662
Additional hops: 2935
Adding flit 58323 as NACK at time 3676
Reenqueueing errored packet 58353 at time 3679
Additional hops: 2944
Adding flit 58904 as NACK at time 3701
Reenqueueing errored packet 58323 at time 3703
Additional hops: 2949
Adding flit 59125 as NACK at time 3705
Additional hops: 2955
Adding flit 59177 as NACK at time 3710
Reenqueueing errored packet 59125 at time 3716
Additional hops: 2958
Adding flit 59416 as NACK at time 3718
Reenqueueing errored packet 58904 at time 3720
Reenqueueing errored packet 59177 at time 3723
Reenqueueing errored packet 59416 at time 3725
Additional hops: 2963
Adding flit 59590 as NACK at time 3733
Additional hops: 2972
Adding flit 59478 as NACK at time 3739
Additional hops: 2983
Adding flit 59430 as NACK at time 3742
Reenqueueing errored packet 59590 at time 3744
Additional hops: 2987
Adding flit 59960 as NACK at time 3752
Reenqueueing errored packet 59478 at time 3758
Reenqueueing errored packet 59960 at time 3761
Additional hops: 2994
Adding flit 59956 as NACK at time 3761
Reenqueueing errored packet 59430 at time 3765
Additional hops: 3001
Adding flit 60178 as NACK at time 3774
Reenqueueing errored packet 59956 at time 3776
Additional hops: 3012
Adding flit 60035 as NACK at time 3783
Reenqueueing errored packet 60178 at time 3789
Additional hops: 3020
Adding flit 60572 as NACK at time 3800
Additional hops: 3023
Adding flit 60828 as NACK at time 3801
Reenqueueing errored packet 60035 at time 3806
Reenqueueing errored packet 60828 at time 3808
Additional hops: 3027
Adding flit 60985 as NACK at time 3815
Reenqueueing errored packet 60572 at time 3817
Additional hops: 3034
Adding flit 60872 as NACK at time 3819
Additional hops: 3038
Adding flit 61113 as NACK at time 3822
Additional hops: 3048
Adding flit 60785 as NACK at time 3823
Reenqueueing errored packet 60985 at time 3824
Additional hops: 3058
Adding flit 60913 as NACK at time 3828
Reenqueueing errored packet 61113 at time 3831
Additional hops: 3063
Adding flit 61208 as NACK at time 3832
Reenqueueing errored packet 60872 at time 3834
Additional hops: 3070
Adding flit 61176 as NACK at time 3837
Reenqueueing errored packet 61208 at time 3843
Reenqueueing errored packet 60785 at time 3844
Additional hops: 3080
Adding flit 61190 as NACK at time 3845
Reenqueueing errored packet 60913 at time 3849
Reenqueueing errored packet 61176 at time 3852
Additional hops: 3093
Adding flit 61227 as NACK at time 3857
Additional hops: 3104
Adding flit 61346 as NACK at time 3860
Reenqueueing errored packet 61190 at time 3866
Reenqueueing errored packet 61346 at time 3883
Reenqueueing errored packet 61227 at time 3884
Additional hops: 3113
Adding flit 61895 as NACK at time 3890
Additional hops: 3121
Adding flit 62214 as NACK at time 3906
Reenqueueing errored packet 61895 at time 3909
Additional hops: 3127
Adding flit 62371 as NACK at time 3911
Reenqueueing errored packet 62214 at time 3923
Reenqueueing errored packet 62371 at time 3924
Additional hops: 3134
Adding flit 62508 as NACK at time 3926
Reenqueueing errored packet 62508 at time 3941
Additional hops: 3144
Adding flit 62677 as NACK at time 3943
Additional hops: 3148
Adding flit 63081 as NACK at time 3950
Additional hops: 3155
Adding flit 62951 as NACK at time 3952
Reenqueueing errored packet 63081 at time 3959
Additional hops: 3163
Adding flit 62971 as NACK at time 3961
Additional hops: 3167
Adding flit 63277 as NACK at time 3962
Reenqueueing errored packet 62677 at time 3964
Reenqueueing errored packet 62951 at time 3967
Reenqueueing errored packet 63277 at time 3971
Additional hops: 3180
Adding flit 63022 as NACK at time 3976
Reenqueueing errored packet 62971 at time 3978
Additional hops: 3186
Adding flit 63442 as NACK at time 3981
Additional hops: 3189
Adding flit 63659 as NACK at time 3985
Additional hops: 3198
Adding flit 63432 as NACK at time 3989
Reenqueueing errored packet 63659 at time 3992
Reenqueueing errored packet 63442 at time 3994
Additional hops: 3203
Adding flit 63792 as NACK at time 4000
Reenqueueing errored packet 63022 at time 4003
Additional hops: 3207
Adding flit 63887 as NACK at time 4005
Reenqueueing errored packet 63432 at time 4008
Additional hops: 3217
Adding flit 63696 as NACK at time 4008
Reenqueueing errored packet 63792 at time 4011
Additional hops: 3229
Adding flit 63649 as NACK at time 4011
Reenqueueing errored packet 63887 at time 4014
Additional hops: 3236
Adding flit 63890 as NACK at time 4014
Additional hops: 3243
Adding flit 63991 as NACK at time 4020
Additional hops: 3253
Adding flit 63853 as NACK at time 4022
Reenqueueing errored packet 63890 at time 4029
Reenqueueing errored packet 63696 at time 4029
Additional hops: 3263
Adding flit 64007 as NACK at time 4030
Additional hops: 3270
Adding flit 64153 as NACK at time 4030
Reenqueueing errored packet 63991 at time 4035
Reenqueueing errored packet 63649 at time 4036
Additional hops: 3277
Adding flit 64250 as NACK at time 4036
Additional hops: 3286
Adding flit 64247 as NACK at time 4042
Reenqueueing errored packet 63853 at time 4043
Reenqueueing errored packet 64153 at time 4045
Additional hops: 3291
Adding flit 64510 as NACK at time 4048
Reenqueueing errored packet 64250 at time 4051
Reenqueueing errored packet 64007 at time 4051
Additional hops: 3299
Adding flit 64482 as NACK at time 4056
Reenqueueing errored packet 64510 at time 4059
Additional hops: 3304
Adding flit 64689 as NACK at time 4059
Additional hops: 3314
Adding flit 64457 as NACK at time 4059
Reenqueueing errored packet 64247 at time 4061
Additional hops: 3323
Adding flit 64530 as NACK at time 4067
Reenqueueing errored packet 64689 at time 4070
Additional hops: 3330
Adding flit 64777 as NACK at time 4070
Additional hops: 3338
Adding flit 64708 as NACK at time 4071
Additional hops: 3343
Adding flit 64901 as NACK at time 4072
Reenqueueing errored packet 64482 at time 4073
Reenqueueing errored packet 64457 at time 4080
Additional hops: 3348
Adding flit 65038 as NACK at time 4080
Reenqueueing errored packet 64901 at time 4083
Reenqueueing errored packet 64777 at time 4085
Reenqueueing errored packet 64530 at time 4086
Additional hops: 3355
Adding flit 65046 as NACK at time 4086
Reenqueueing errored packet 64708 at time 4088
Reenqueueing errored packet 65038 at time 4091
Additional hops: 3361
Adding flit 65321 as NACK at time 4100
Reenqueueing errored packet 65046 at time 4101
Additional hops: 3368
Adding flit 65415 as NACK at time 4109
Additional hops: 3370
Adding flit 65651 as NACK at time 4109
Reenqueueing errored packet 65321 at time 4113
Reenqueueing errored packet 65651 at time 4114
Reenqueueing errored packet 65415 at time 4124
Additional hops: 3378
Adding flit 65783 as NACK at time 4136
Additional hops: 3380
Adding flit 66254 as NACK at time 4146
Additional hops: 3389
Adding flit 65928 as NACK at time 4147
Reenqueueing errored packet 66254 at time 4151
Reenqueueing errored packet 65783 at time 4153
Additional hops: 3400
Adding flit 65980 as NACK at time 4154
Reenqueueing errored packet 65928 at time 4166
Additional hops: 3410
Adding flit 66204 as NACK at time 4168
Reenqueueing errored packet 65980 at time 4177
Additional hops: 3418
Adding flit 66506 as NACK at time 4179
Additional hops: 3426
Adding flit 66551 as NACK at time 4183
Reenqueueing errored packet 66204 at time 4189
Additional hops: 3431
Adding flit 66880 as NACK at time 4195
Reenqueueing errored packet 66506 at time 4196
Additional hops: 3438
Adding flit 66826 as NACK at time 4198
Reenqueueing errored packet 66551 at time 4200
Reenqueueing errored packet 66880 at time 4206
Additional hops: 3447
Adding flit 66881 as NACK at time 4207
Reenqueueing errored packet 66826 at time 4213
Additional hops: 3453
Adding flit 67189 as NACK at time 4218
Additional hops: 3464
Adding flit 66909 as NACK at time 4219
Reenqueueing errored packet 66881 at time 4226
Reenqueueing errored packet 67189 at time 4231
Additional hops: 3476
Adding flit 67138 as NACK at time 4235
Additional hops: 3483
Adding flit 67395 as NACK at time 4236
Reenqueueing errored packet 66909 at time 4242
Additional hops: 3496
Adding flit 67281 as NACK at time 4248
Reenqueueing errored packet 67395 at time 4251
Reenqueueing errored packet 67138 at time 4260
Additional hops: 3504
Adding flit 68020 as NACK at time 4272
Reenqueueing errored packet 67281 at time 4275
Reenqueueing errored packet 68020 at time 4289
Additional hops: 3513
Adding flit 68405 as NACK at time 4302
Additional hops: 3517
Adding flit 68791 as NACK at time 4309
Reenqueueing errored packet 68791 at time 4318
Reenqueueing errored packet 68405 at time 4321
Additional hops: 3524
Adding flit 68926 as NACK at time 4327
Additional hops: 3530
Adding flit 69003 as NACK at time 4331
Reenqueueing errored packet 68926 at time 4342
Reenqueueing errored packet 69003 at time 4344
Additional hops: 3537
Adding flit 69137 as NACK at time 4345
Additional hops: 3546
Adding flit 69279 as NACK at time 4357
Reenqueueing errored packet 69137 at time 4360
Additional hops: 3550
Adding flit 69593 as NACK at time 4363
Additional hops: 3556
Adding flit 69635 as NACK at time 4370
Reenqueueing errored packet 69593 at time 4372
Reenqueueing errored packet 69279 at time 4376
Reenqueueing errored packet 69635 at time 4383
Additional hops: 3565
Adding flit 69685 as NACK at time 4383
Additional hops: 3573
Adding flit 69792 as NACK at time 4384
Additional hops: 3579
Adding flit 69860 as NACK at time 4385
Additional hops: 3586
Adding flit 70011 as NACK at time 4397
Reenqueueing errored packet 69860 at time 4398
Reenqueueing errored packet 69792 at time 4401
Reenqueueing errored packet 69685 at time 4402
Additional hops: 3596
Adding flit 69955 as NACK at time 4406
Reenqueueing errored packet 70011 at time 4412
Additional hops: 3607
Adding flit 70132 as NACK at time 4417
Additional hops: 3616
Adding flit 70359 as NACK at time 4425
Reenqueueing errored packet 69955 at time 4427
Additional hops: 3625
Adding flit 70578 as NACK at time 4438
Reenqueueing errored packet 70132 at time 4440
Additional hops: 3633
Adding flit 70696 as NACK at time 4442
Reenqueueing errored packet 70359 at time 4444
Additional hops: 3640
Adding flit 70828 as NACK at time 4447
Additional hops: 3651
Adding flit 70676 as NACK at time 4447
Additional hops: 3660
Adding flit 70705 as NACK at time 4447
Additional hops: 3673
Adding flit 70580 as NACK at time 4451
Additional hops: 3682
Adding flit 70819 as NACK at time 4454
Reenqueueing errored packet 70578 at time 4457
Reenqueueing errored packet 70696 at time 4459
Additional hops: 3690
Adding flit 71006 as NACK at time 4459
Reenqueueing errored packet 70828 at time 4462
Reenqueueing errored packet 70705 at time 4466
Additional hops: 3697
Adding flit 71172 as NACK at time 4468
Reenqueueing errored packet 70676 at time 4470
Reenqueueing errored packet 70819 at time 4473
Reenqueueing errored packet 71006 at time 4476
Reenqueueing errored packet 70580 at time 4478
Reenqueueing errored packet 71172 at time 4483
Additional hops: 3699
Adding flit 71754 as NACK at time 4488
Additional hops: 3701
Adding flit 71797 as NACK at time 4490
Reenqueueing errored packet 71754 at time 4493
Reenqueueing errored packet 71797 at time 4495
Additional hops: 3707
Adding flit 71890 as NACK at time 4510
Reenqueueing errored packet 71890 at time 4523
Additional hops: 3714
Adding flit 72377 as NACK at time 4541
Additional hops: 3720
Adding flit 72493 as NACK at time 4545
Additional hops: 3723
Adding flit 72793 as NACK at time 4555
Reenqueueing errored packet 72377 at time 4556
Reenqueueing errored packet 72493 at time 4558
Reenqueueing errored packet 72793 at time 4562
Additional hops: 3727
Adding flit 72934 as NACK at time 4566
Additional hops: 3736
Adding flit 72681 as NACK at time 4568
Additional hops: 3746
Adding flit 72705 as NACK at time 4570
Reenqueueing errored packet 72934 at time 4575
Additional hops: 3752
Adding flit 73093 as NACK at time 4583
Additional hops: 3761
Adding flit 72866 as NACK at time 4583
Additional hops: 3775
Adding flit 72727 as NACK at time 4586
Reenqueueing errored packet 72681 at time 4587
Reenqueueing errored packet 72705 at time 4591
Reenqueueing errored packet 73093 at time 4596
Additional hops: 3781
Adding flit 73409 as NACK at time 4601
Additional hops: 3787
Adding flit 73370 as NACK at time 4601
Reenqueueing errored packet 72866 at time 4602
Additional hops: 3800
Adding flit 73153 as NACK at time 4609
Reenqueueing errored packet 73370 at time 4614
Reenqueueing errored packet 73409 at time 4614
Reenqueueing errored packet 72727 at time 4615
Additional hops: 3805
Adding flit 73753 as NACK at time 4618
Additional hops: 3825
Adding flit 72705 as NACK at time 4623
Additional hops: 3830
Adding flit 73803 as NACK at time 4623
Additional hops: 3841
Adding flit 73507 as NACK at time 4623
Additional hops: 3847
Adding flit 73796 as NACK at time 4625
Additional hops: 3858
Adding flit 73573 as NACK at time 4627
Reenqueueing errored packet 73753 at time 4629
Additional hops: 3868
Adding flit 73698 as NACK at time 4630
Reenqueueing errored packet 73803 at time 4634
Reenqueueing errored packet 73153 at time 4636
Additional hops: 3873
Adding flit 74024 as NACK at time 4637
Reenqueueing errored packet 73796 at time 4638
Reenqueueing errored packet 73507 at time 4646
Reenqueueing errored packet 74024 at time 4648
Reenqueueing errored packet 73573 at time 4650
Reenqueueing errored packet 73698 at time 4651
Additional hops: 3879
Adding flit 74120 as NACK at time 4651
Additional hops: 3883
Adding flit 74385 as NACK at time 4656
Additional hops: 3890
Adding flit 74335 as NACK at time 4660
Additional hops: 3900
Adding flit 74210 as NACK at time 4662
Additional hops: 3907
Adding flit 74363 as NACK at time 4663
Reenqueueing errored packet 74120 at time 4664
Reenqueueing errored packet 72705 at time 4664
Reenqueueing errored packet 74385 at time 4665
Additional hops: 3915
Adding flit 74376 as NACK at time 4666
Additional hops: 3925
Adding flit 74024 as NACK at time 4666
Additional hops: 3929
Adding flit 74589 as NACK at time 4668
Reenqueueing errored packet 74335 at time 4675
Reenqueueing errored packet 74589 at time 4677
Reenqueueing errored packet 74363 at time 4678
Reenqueueing errored packet 74376 at time 4683
Reenqueueing errored packet 74210 at time 4683
Reenqueueing errored packet 74024 at time 4687
Additional hops: 3935
Adding flit 74821 as NACK at time 4687
Reenqueueing errored packet 74821 at time 4700
Additional hops: 3938
Adding flit 75281 as NACK at time 4708
Reenqueueing errored packet 75281 at time 4715
Additional hops: 3944
Adding flit 75498 as NACK at time 4731
Additional hops: 3953
Adding flit 75430 as NACK at time 4737
Additional hops: 3957
Adding flit 75730 as NACK at time 4741
Reenqueueing errored packet 75498 at time 4744
Additional hops: 3965
Adding flit 75643 as NACK at time 4747
Reenqueueing errored packet 75730 at time 4750
Reenqueueing errored packet 75430 at time 4756
Reenqueueing errored packet 75643 at time 4764
Additional hops: 3969
Adding flit 76195 as NACK at time 4769
Reenqueueing errored packet 76195 at time 4778
Additional hops: 3977
Adding flit 76152 as NACK at time 4778
Additional hops: 3983
Adding flit 76453 as NACK at time 4792
Additional hops: 3992
Adding flit 76354 as NACK at time 4794
Reenqueueing errored packet 76152 at time 4795
Additional hops: 3999
Adding flit 76477 as NACK at time 4797
Additional hops: 4006
Adding flit 76508 as NACK at time 4799
Reenqueueing errored packet 76453 at time 4805
Additional hops: 4012
Adding flit 76778 as NACK at time 4810
Additional hops: 4025
Adding flit 76423 as NACK at time 4811
Reenqueueing errored packet 76477 at time 4812
Reenqueueing errored packet 76354 at time 4813
Reenqueueing errored packet 76508 at time 4814
Reenqueueing errored packet 76778 at time 4823
Additional hops: 4029
Adding flit 77198 as NACK at time 4829
Additional hops: 4039
Adding flit 76962 as NACK at time 4835
Additional hops: 4046
Adding flit 77101 as NACK at time 4836
Reenqueueing errored packet 77198 at time 4838
Reenqueueing errored packet 76423 at time 4838
Reenqueueing errored packet 77101 at time 4851
Reenqueueing errored packet 76962 at time 4856
Additional hops: 4054
Adding flit 77372 as NACK at time 4856
Additional hops: 4062
Adding flit 77541 as NACK at time 4864
Additional hops: 4070
Adding flit 77645 as NACK at time 4869
Reenqueueing errored packet 77372 at time 4873
Reenqueueing errored packet 77541 at time 4881
Additional hops: 4096
Adding flit 76423 as NACK at time 4881
Reenqueueing errored packet 77645 at time 4886
Additional hops: 4106
Adding flit 78232 as NACK at time 4912
Reenqueueing errored packet 78232 at time 4933
Reenqueueing errored packet 76423 at time 4934
Additional hops: 4115
Adding flit 78761 as NACK at time 4942
Additional hops: 4120
Adding flit 78971 as NACK at time 4943
Reenqueueing errored packet 78971 at time 4954
Additional hops: 4129
Adding flit 78989 as NACK at time 4956
Additional hops: 4136
Adding flit 79103 as NACK at time 4957
Additional hops: 4143
Adding flit 79119 as NACK at time 4959
Reenqueueing errored packet 78761 at time 4961
Additional hops: 4149
Adding flit 79234 as NACK at time 4963
Additional hops: 4153
Adding flit 79407 as NACK at time 4965
Additional hops: 4163
Adding flit 79030 as NACK at time 4966
Additional hops: 4172
Adding flit 79207 as NACK at time 4967
Additional hops: 4181
Adding flit 79251 as NACK at time 4970
Reenqueueing errored packet 79103 at time 4972
Reenqueueing errored packet 79407 at time 4974
Reenqueueing errored packet 79119 at time 4974
Reenqueueing errored packet 78989 at time 4975
Reenqueueing errored packet 79234 at time 4976
Reenqueueing errored packet 79207 at time 4986
Additional hops: 4187
Adding flit 79618 as NACK at time 4986
Reenqueueing errored packet 79030 at time 4987
Reenqueueing errored packet 79251 at time 4989
Additional hops: 4195
Adding flit 79664 as NACK at time 4996
Reenqueueing errored packet 79618 at time 4999
Additional hops: 4202
Adding flit 79904 as NACK at time 5009
Reenqueueing errored packet 79664 at time 5013
Additional hops: 4211
Adding flit 79927 as NACK at time 5013
Additional hops: 4218
Adding flit 80043 as NACK at time 5014
Reenqueueing errored packet 79904 at time 5024
Additional hops: 4226
Adding flit 80132 as NACK at time 5025
Additional hops: 4233
Adding flit 80209 as NACK at time 5026
Additional hops: 4241
Adding flit 80178 as NACK at time 5027
Reenqueueing errored packet 80043 at time 5029
Reenqueueing errored packet 79927 at time 5032
Additional hops: 4252
Adding flit 80143 as NACK at time 5036
Reenqueueing errored packet 80209 at time 5041
Reenqueueing errored packet 80132 at time 5042
Reenqueueing errored packet 80178 at time 5044
Additional hops: 4266
Adding flit 79904 as NACK at time 5050
Additional hops: 4272
Adding flit 80677 as NACK at time 5053
Additional hops: 4280
Adding flit 80601 as NACK at time 5053
Reenqueueing errored packet 80143 at time 5059
Additional hops: 4292
Adding flit 80557 as NACK at time 5061
Additional hops: 4299
Adding flit 80808 as NACK at time 5065
Reenqueueing errored packet 80677 at time 5066
Reenqueueing errored packet 80601 at time 5070
Additional hops: 4305
Adding flit 81059 as NACK at time 5078
Reenqueueing errored packet 79904 at time 5079
Reenqueueing errored packet 80808 at time 5080
Additional hops: 4315
Adding flit 80925 as NACK at time 5080
Reenqueueing errored packet 80557 at time 5086
Reenqueueing errored packet 81059 at time 5091
Additional hops: 4324
Adding flit 81205 as NACK at time 5097
Additional hops: 4332
Adding flit 81272 as NACK at time 5098
Additional hops: 4343
Adding flit 81126 as NACK at time 5099
Reenqueueing errored packet 80925 at time 5101
Additional hops: 4351
Adding flit 81350 as NACK at time 5103
Reenqueueing errored packet 81272 at time 5115
Reenqueueing errored packet 81205 at time 5116
Reenqueueing errored packet 81350 at time 5120
Reenqueueing errored packet 81126 at time 5122
Additional hops: 4356
Adding flit 81860 as NACK at time 5127
Additional hops: 4361
Adding flit 81876 as NACK at time 5129
Reenqueueing errored packet 81860 at time 5138
Reenqueueing errored packet 81876 at time 5140
Additional hops: 4364
Adding flit 82235 as NACK at time 5144
Additional hops: 4371
Adding flit 82071 as NACK at time 5146
Reenqueueing errored packet 82235 at time 5151
Additional hops: 4379
Adding flit 82204 as NACK at time 5156
Additional hops: 4383
Adding flit 82385 as NACK at time 5157
Reenqueueing errored packet 82071 at time 5161
Reenqueueing errored packet 82385 at time 5166
Additional hops: 4391
Adding flit 82342 as NACK at time 5167
Additional hops: 4398
Adding flit 82450 as NACK at time 5170
Reenqueueing errored packet 82204 at time 5173
Additional hops: 4400
Adding flit 82745 as NACK at time 5174
Reenqueueing errored packet 82745 at time 5179
Additional hops: 4408
Adding flit 82572 as NACK at time 5181
Additional hops: 4413
Adding flit 82723 as NACK at time 5182
Reenqueueing errored packet 82342 at time 5184
Reenqueueing errored packet 82450 at time 5185
Reenqueueing errored packet 82723 at time 5193
Additional hops: 4420
Adding flit 82815 as NACK at time 5195
Reenqueueing errored packet 82572 at time 5198
Reenqueueing errored packet 82815 at time 5210
Additional hops: 4423
Adding flit 83255 as NACK at time 5210
Additional hops: 4430
Adding flit 83034 as NACK at time 5211
Additional hops: 4432
Adding flit 83396 as NACK at time 5216
Reenqueueing errored packet 83255 at time 5217
Reenqueueing errored packet 83396 at time 5221
Additional hops: 4437
Adding flit 83335 as NACK at time 5221
Reenqueueing errored packet 83034 at time 5226
Additional hops: 4444
Adding flit 83359 as NACK at time 5230
Reenqueueing errored packet 83335 at time 5232
Additional hops: 4451
Adding flit 83579 as NACK at time 5242
Reenqueueing errored packet 83359 at time 5245
Reenqueueing errored packet 83579 at time 5257
Additional hops: 4457
Adding flit 83958 as NACK at time 5268
Additional hops: 4459
Adding flit 84274 as NACK at time 5272
Reenqueueing errored packet 84274 at time 5277
Reenqueueing errored packet 83958 at time 5281
Additional hops: 4463
Adding flit 84752 as NACK at time 5311
Additional hops: 4473
Adding flit 84469 as NACK at time 5311
Additional hops: 4478
Adding flit 84857 as NACK at time 5319
Reenqueueing errored packet 84752 at time 5320
Additional hops: 4485
Adding flit 84815 as NACK at time 5324
Reenqueueing errored packet 84857 at time 5330
Additional hops: 4493
Adding flit 84913 as NACK at time 5331
Reenqueueing errored packet 84469 at time 5332
Additional hops: 4499
Adding flit 85026 as NACK at time 5332
Additional hops: 4505
Adding flit 85029 as NACK at time 5334
Additional hops: 4508
Adding flit 85225 as NACK at time 5335
Additional hops: 4514
Adding flit 85085 as NACK at time 5337
Additional hops: 4521
Adding flit 84999 as NACK at time 5338
Reenqueueing errored packet 84815 at time 5339
Additional hops: 4530
Adding flit 84925 as NACK at time 5339
Reenqueueing errored packet 85225 at time 5342
Additional hops: 4534
Adding flit 85295 as NACK at time 5343
Reenqueueing errored packet 85026 at time 5345
Additional hops: 4541
Adding flit 85211 as NACK at time 5346
Reenqueueing errored packet 85029 at time 5347
Reenqueueing errored packet 84913 at time 5348
Reenqueueing errored packet 85085 at time 5350
Reenqueueing errored packet 85295 at time 5352
Reenqueueing errored packet 84999 at time 5353
Additional hops: 4545
Adding flit 85521 as NACK at time 5357
Reenqueueing errored packet 84925 at time 5358
Reenqueueing errored packet 85211 at time 5361
Reenqueueing errored packet 85521 at time 5366
Additional hops: 4553
Adding flit 85917 as NACK at time 5398
Additional hops: 4560
Adding flit 86026 as NACK at time 5399
Additional hops: 4573
Adding flit 85723 as NACK at time 5400
Additional hops: 4582
Adding flit 85942 as NACK at time 5401
Additional hops: 4591
Adding flit 85920 as NACK at time 5402
Additional hops: 4603
Adding flit 85975 as NACK at time 5410
Additional hops: 4612
Adding flit 86067 as NACK at time 5411
Reenqueueing errored packet 86026 at time 5414
Reenqueueing errored packet 85917 at time 5415
Reenqueueing errored packet 85942 at time 5420
Reenqueueing errored packet 85920 at time 5421
Additional hops: 4620
Adding flit 86350 as NACK at time 5422
Additional hops: 4631
Adding flit 86209 as NACK at time 5424
Reenqueueing errored packet 85723 at time 5427
Reenqueueing errored packet 86067 at time 5430
Reenqueueing errored packet 85975 at time 5435
Additional hops: 4639
Adding flit 86564 as NACK at time 5435
Reenqueueing errored packet 86350 at time 5439
Additional hops: 4649
Adding flit 86546 as NACK at time 5442
Additional hops: 4653
Adding flit 86869 as NACK at time 5443
Reenqueueing errored packet 86209 at time 5447
Reenqueueing errored packet 86869 at time 5452
Reenqueueing errored packet 86564 at time 5452
Reenqueueing errored packet 86546 at time 5463
Additional hops: 4661
Adding flit 87817 as NACK at time 5518
Additional hops: 4668
Adding flit 87982 as NACK at time 5524
Additional hops: 4674
Adding flit 88098 as NACK at time 5527
Additional hops: 4681
Adding flit 88057 as NACK at time 5529
Reenqueueing errored packet 87817 at time 5535
Reenqueueing errored packet 87982 at time 5539
Additional hops: 4685
Adding flit 88398 as NACK at time 5539
Reenqueueing errored packet 88098 at time 5540
Additional hops: 4690
Adding flit 88345 as NACK at time 5540
Reenqueueing errored packet 88057 at time 5544
Reenqueueing errored packet 88398 at time 5548
Reenqueueing errored packet 88345 at time 5551
Additional hops: 4698
Adding flit 88513 as NACK at time 5559
Additional hops: 4703
Adding flit 88784 as NACK at time 5564
Reenqueueing errored packet 88784 at time 5575
Reenqueueing errored packet 88513 at time 5576
Additional hops: 4708
Adding flit 89088 as NACK at time 5584
Additional hops: 4718
Adding flit 88876 as NACK at time 5585
Reenqueueing errored packet 89088 at time 5595
Additional hops: 4720
Adding flit 89581 as NACK at time 5605
Reenqueueing errored packet 88876 at time 5606
Additional hops: 4724
Adding flit 89467 as NACK at time 5606
Additional hops: 4728
Adding flit 89499 as NACK at time 5607
Reenqueueing errored packet 89581 at time 5610
Reenqueueing errored packet 89467 at time 5615
Additional hops: 4733
Adding flit 89578 as NACK at time 5615
Additional hops: 4743
Adding flit 89272 as NACK at time 5615
Reenqueueing errored packet 89499 at time 5616
Additional hops: 4751
Adding flit 89547 as NACK at time 5621
Reenqueueing errored packet 89578 at time 5626
Additional hops: 4756
Adding flit 89878 as NACK at time 5633
Additional hops: 4768
Adding flit 89472 as NACK at time 5633
Reenqueueing errored packet 89272 at time 5636
Reenqueueing errored packet 89547 at time 5638
Reenqueueing errored packet 89878 at time 5644
Additional hops: 4779
Adding flit 89846 as NACK at time 5649
Additional hops: 4785
Adding flit 90110 as NACK at time 5652
Additional hops: 4791
Adding flit 90232 as NACK at time 5657
Reenqueueing errored packet 89472 at time 5658
Additional hops: 4798
Adding flit 90243 as NACK at time 5662
Additional hops: 4807
Adding flit 90093 as NACK at time 5662
Reenqueueing errored packet 90110 at time 5665
Additional hops: 4811
Adding flit 90508 as NACK at time 5667
Reenqueueing errored packet 90232 at time 5670
Reenqueueing errored packet 89846 at time 5672
Reenqueueing errored packet 90508 at time 5676
Reenqueueing errored packet 90243 at time 5677
Reenqueueing errored packet 90093 at time 5681
Additional hops: 4819
Adding flit 90594 as NACK at time 5685
Additional hops: 4824
Adding flit 90875 as NACK at time 5692
Reenqueueing errored packet 90594 at time 5702
Reenqueueing errored packet 90875 at time 5703
Additional hops: 4830
Adding flit 90940 as NACK at time 5703
Additional hops: 4837
Adding flit 90978 as NACK at time 5706
Additional hops: 4845
Adding flit 91031 as NACK at time 5713
Reenqueueing errored packet 90940 at time 5716
Reenqueueing errored packet 90978 at time 5721
Additional hops: 4857
Adding flit 90867 as NACK at time 5721
Additional hops: 4866
Adding flit 91146 as NACK at time 5722
Reenqueueing errored packet 91031 at time 5730
Reenqueueing errored packet 91146 at time 5741
Reenqueueing errored packet 90867 at time 5746
Additional hops: 4871
Adding flit 92060 as NACK at time 5767
Additional hops: 4876
Adding flit 92066 as NACK at time 5768
Reenqueueing errored packet 92060 at time 5778
Reenqueueing errored packet 92066 at time 5779
Additional hops: 4881
Adding flit 92462 as NACK at time 5792
Additional hops: 4887
Adding flit 92472 as NACK at time 5795
Additional hops: 4889
Adding flit 92660 as NACK at time 5796
Additional hops: 4897
Adding flit 92402 as NACK at time 5798
Reenqueueing errored packet 92660 at time 5801
Reenqueueing errored packet 92462 at time 5803
Reenqueueing errored packet 92472 at time 5808
Additional hops: 4907
Adding flit 92504 as NACK at time 5812
Reenqueueing errored packet 92402 at time 5815
Additional hops: 4915
Adding flit 92716 as NACK at time 5818
Additional hops: 4921
Adding flit 92875 as NACK at time 5822
Additional hops: 4928
Adding flit 92970 as NACK at time 5832
Reenqueueing errored packet 92504 at time 5833
Reenqueueing errored packet 92875 at time 5835
Reenqueueing errored packet 92716 at time 5835
Additional hops: 4935
Adding flit 93049 as NACK at time 5835
Additional hops: 4943
Adding flit 93024 as NACK at time 5838
Additional hops: 4946
Adding flit 93286 as NACK at time 5840
Additional hops: 4957
Adding flit 92990 as NACK at time 5844
Reenqueueing errored packet 93286 at time 5847
Reenqueueing errored packet 92970 at time 5847
Additional hops: 4962
Adding flit 93309 as NACK at time 5848
Additional hops: 4970
Adding flit 93190 as NACK at time 5849
Reenqueueing errored packet 93049 at time 5850
Reenqueueing errored packet 93024 at time 5855
Reenqueueing errored packet 93309 at time 5859
Reenqueueing errored packet 93190 at time 5866
Additional hops: 4978
Adding flit 93429 as NACK at time 5866
Reenqueueing errored packet 92990 at time 5867
Additional hops: 4983
Adding flit 93625 as NACK at time 5867
Additional hops: 4991
Adding flit 93627 as NACK at time 5875
Reenqueueing errored packet 93625 at time 5878
Additional hops: 4995
Adding flit 93936 as NACK at time 5882
Reenqueueing errored packet 93429 at time 5883
Reenqueueing errored packet 93936 at time 5891
Reenqueueing errored packet 93627 at time 5892
Additional hops: 5002
Adding flit 94021 as NACK at time 5896
Additional hops: 5013
Adding flit 93899 as NACK at time 5901
Additional hops: 5021
Adding flit 94024 as NACK at time 5901
Additional hops: 5034
Adding flit 93860 as NACK at time 5905
Reenqueueing errored packet 94021 at time 5911
Additional hops: 5041
Adding flit 94137 as NACK at time 5912
Reenqueueing errored packet 94024 at time 5918
Reenqueueing errored packet 93899 at time 5924
Additional hops: 5045
Adding flit 94640 as NACK at time 5926
Reenqueueing errored packet 94137 at time 5927
Reenqueueing errored packet 93860 at time 5932
Reenqueueing errored packet 94640 at time 5935
Additional hops: 5050
Adding flit 94982 as NACK at time 5949
Reenqueueing errored packet 94982 at time 5960
Additional hops: 5054
Adding flit 95318 as NACK at time 5967
Reenqueueing errored packet 95318 at time 5976
Additional hops: 5061
Adding flit 95342 as NACK at time 5978
Additional hops: 5068
Adding flit 95402 as NACK at time 5983
Additional hops: 5075
Adding flit 95532 as NACK at time 5992
Reenqueueing errored packet 95342 at time 5993
Additional hops: 5079
Adding flit 95797 as NACK at time 5996
Reenqueueing errored packet 95402 at time 5998
Additional hops: 5089
Adding flit 95578 as NACK at time 6002
Reenqueueing errored packet 95797 at time 6005
Reenqueueing errored packet 95532 at time 6007
Additional hops: 5098
Adding flit 95798 as NACK at time 6012
Reenqueueing errored packet 95578 at time 6023
Additional hops: 5108
Adding flit 95985 as NACK at time 6025
Additional hops: 5111
Adding flit 96337 as NACK at time 6028
Reenqueueing errored packet 95798 at time 6031
Additional hops: 5114
Adding flit 96347 as NACK at time 6031
Additional hops: 5121
Adding flit 96246 as NACK at time 6034
Reenqueueing errored packet 96337 at time 6035
Reenqueueing errored packet 96347 at time 6038
Reenqueueing errored packet 95985 at time 6046
Reenqueueing errored packet 96246 at time 6049
Additional hops: 5128
Adding flit 96477 as NACK at time 6050
Additional hops: 5135
Adding flit 96527 as NACK at time 6053
Additional hops: 5140
Adding flit 96771 as NACK at time 6062
Additional hops: 5154
Adding flit 96351 as NACK at time 6064
Reenqueueing errored packet 96477 at time 6065
Reenqueueing errored packet 96527 at time 6068
Additional hops: 5167
Adding flit 96481 as NACK at time 6070
Reenqueueing errored packet 96771 at time 6073
Additional hops: 5170
Adding flit 97053 as NACK at time 6074
Reenqueueing errored packet 97053 at time 6081
Additional hops: 5180
Adding flit 96953 as NACK at time 6090
Reenqueueing errored packet 96351 at time 6093
Reenqueueing errored packet 96481 at time 6097
Additional hops: 5187
Adding flit 97370 as NACK at time 6107
Reenqueueing errored packet 96953 at time 6111
Additional hops: 5196
Adding flit 97302 as NACK at time 6111
Reenqueueing errored packet 97370 at time 6122
Reenqueueing errored packet 97302 at time 6130
Additional hops: 5206
Adding flit 97637 as NACK at time 6137
Additional hops: 5212
Adding flit 97864 as NACK at time 6137
Additional hops: 5220
Adding flit 97919 as NACK at time 6147
Additional hops: 5226
Adding flit 98047 as NACK at time 6148
Additional hops: 5235
Adding flit 97897 as NACK at time 6148
Reenqueueing errored packet 97864 at time 6150
Reenqueueing errored packet 97637 at time 6158
Reenqueueing errored packet 98047 at time 6161
Additional hops: 5243
Adding flit 98183 as NACK at time 6161
Reenqueueing errored packet 97919 at time 6164
Reenqueueing errored packet 97897 at time 6167
Additional hops: 5247
Adding flit 98437 as NACK at time 6168
Additional hops: 5254
Adding flit 98360 as NACK at time 6170
Additional hops: 5262
[...]
Additional hops: 50084
Adding flit 941732 as NACK at time 58881
Additional hops: 50092
Adding flit 941967 as NACK at time 58883
Additional hops: 50095
Adding flit 942233 as NACK at time 58885
Reenqueueing errored packet 941797 at time 58888
Additional hops: 50106
Adding flit 941917 as NACK at time 58891
Reenqueueing errored packet 942233 at time 58892
Reenqueueing errored packet 941947 at time 58895
Reenqueueing errored packet 941886 at time 58897
Reenqueueing errored packet 941513 at time 58898
Reenqueueing errored packet 941967 at time 58900
Additional hops: 50112
Adding flit 942327 as NACK at time 58900
Additional hops: 50117
Adding flit 942416 as NACK at time 58903
Additional hops: 50120
Adding flit 942524 as NACK at time 58903
Reenqueueing errored packet 941732 at time 58904
Reenqueueing errored packet 942524 at time 58910
Additional hops: 50127
Adding flit 942445 as NACK at time 58911
Reenqueueing errored packet 942327 at time 58913
Reenqueueing errored packet 942416 at time 58914
Reenqueueing errored packet 941917 at time 58914
Reenqueueing errored packet 942445 at time 58926
Additional hops: 50133
Adding flit 942719 as NACK at time 58928
Additional hops: 50141
Adding flit 942783 as NACK at time 58935
Additional hops: 50152
Adding flit 942645 as NACK at time 58936
Reenqueueing errored packet 942719 at time 58941
Reenqueueing errored packet 942783 at time 58952
Additional hops: 50158
Adding flit 943136 as NACK at time 58953
Reenqueueing errored packet 942645 at time 58959
Additional hops: 50170
Adding flit 942969 as NACK at time 58965
Reenqueueing errored packet 943136 at time 58966
Additional hops: 50181
Adding flit 943331 as NACK at time 58981
Additional hops: 50184
Adding flit 943806 as NACK at time 58983
Additional hops: 50195
Adding flit 943417 as NACK at time 58984
Reenqueueing errored packet 943806 at time 58990
Reenqueueing errored packet 942969 at time 58990
Additional hops: 50200
Adding flit 943871 as NACK at time 58991
Additional hops: 50205
Adding flit 943935 as NACK at time 58996
Reenqueueing errored packet 943871 at time 59002
Reenqueueing errored packet 943331 at time 59004
Reenqueueing errored packet 943935 at time 59007
Reenqueueing errored packet 943417 at time 59007
Additional hops: 50208
Adding flit 944495 as NACK at time 59022
Additional hops: 50216
Adding flit 944271 as NACK at time 59024
Additional hops: 50219
Adding flit 944522 as NACK at time 59024
Additional hops: 50227
Adding flit 944249 as NACK at time 59026
Reenqueueing errored packet 944495 at time 59029
Reenqueueing errored packet 944522 at time 59031
Additional hops: 50235
Adding flit 944497 as NACK at time 59040
Reenqueueing errored packet 944271 at time 59041
Additional hops: 50247
Adding flit 944316 as NACK at time 59041
Reenqueueing errored packet 944249 at time 59043
Additional hops: 50260
Adding flit 944320 as NACK at time 59044
Additional hops: 50269
Adding flit 944625 as NACK at time 59052
Reenqueueing errored packet 944497 at time 59057
Additional hops: 50274
Adding flit 944993 as NACK at time 59059
Additional hops: 50284
Adding flit 944844 as NACK at time 59064
Reenqueueing errored packet 944316 at time 59066
Reenqueueing errored packet 944993 at time 59070
Additional hops: 50295
Adding flit 944780 as NACK at time 59070
Reenqueueing errored packet 944625 at time 59071
Reenqueueing errored packet 944320 at time 59071
Additional hops: 50302
Adding flit 945179 as NACK at time 59076
Additional hops: 50309
Adding flit 945174 as NACK at time 59078
Additional hops: 50318
Adding flit 945196 as NACK at time 59084
Reenqueueing errored packet 944844 at time 59085
Reenqueueing errored packet 945179 at time 59091
Reenqueueing errored packet 945174 at time 59093
Reenqueueing errored packet 944780 at time 59093
Additional hops: 50320
Adding flit 945662 as NACK at time 59094
Additional hops: 50332
Adding flit 945230 as NACK at time 59096
Reenqueueing errored packet 945662 at time 59099
Reenqueueing errored packet 945196 at time 59103
Additional hops: 50340
Adding flit 945531 as NACK at time 59104
Additional hops: 50366
Adding flit 944320 as NACK at time 59116
Reenqueueing errored packet 945531 at time 59121
Reenqueueing errored packet 945230 at time 59121
Additional hops: 50370
Adding flit 946057 as NACK at time 59124
Additional hops: 50379
Adding flit 945880 as NACK at time 59130
Reenqueueing errored packet 946057 at time 59133
Additional hops: 50383
Adding flit 946327 as NACK at time 59141
Reenqueueing errored packet 945880 at time 59149
Reenqueueing errored packet 946327 at time 59150
Additional hops: 50391
Adding flit 946344 as NACK at time 59154
Additional hops: 50399
Adding flit 946370 as NACK at time 59160
Reenqueueing errored packet 944320 at time 59169
Reenqueueing errored packet 946344 at time 59171
Additional hops: 50405
Adding flit 946772 as NACK at time 59175
Additional hops: 50414
Adding flit 946665 as NACK at time 59176
Reenqueueing errored packet 946370 at time 59177
Additional hops: 50418
Adding flit 946993 as NACK at time 59180
Additional hops: 50427
Adding flit 946664 as NACK at time 59180
Additional hops: 50436
Adding flit 946831 as NACK at time 59187
Additional hops: 50446
Adding flit 946788 as NACK at time 59187
Reenqueueing errored packet 946772 at time 59188
Reenqueueing errored packet 946993 at time 59189
Reenqueueing errored packet 946665 at time 59195
Additional hops: 50458
Adding flit 946860 as NACK at time 59198
Reenqueueing errored packet 946664 at time 59199
Reenqueueing errored packet 946831 at time 59206
Additional hops: 50463
Adding flit 947380 as NACK at time 59207
Reenqueueing errored packet 946788 at time 59208
Reenqueueing errored packet 947380 at time 59218
Reenqueueing errored packet 946860 at time 59223
Additional hops: 50471
Adding flit 947675 as NACK at time 59235
Additional hops: 50476
Adding flit 948034 as NACK at time 59248
Reenqueueing errored packet 947675 at time 59252
Reenqueueing errored packet 948034 at time 59259
Additional hops: 50481
Adding flit 948211 as NACK at time 59259
Additional hops: 50482
Adding flit 948392 as NACK at time 59259
Reenqueueing errored packet 948392 at time 59262
Reenqueueing errored packet 948211 at time 59270
Additional hops: 50491
Adding flit 948170 as NACK at time 59272
Reenqueueing errored packet 948170 at time 59291
Additional hops: 50496
Adding flit 948865 as NACK at time 59302
Additional hops: 50502
Adding flit 948975 as NACK at time 59311
Additional hops: 50511
Adding flit 948816 as NACK at time 59312
Reenqueueing errored packet 948865 at time 59313
Reenqueueing errored packet 948975 at time 59324
Additional hops: 50519
Adding flit 949090 as NACK at time 59325
Reenqueueing errored packet 948816 at time 59331
Additional hops: 50523
Adding flit 949499 as NACK at time 59340
Reenqueueing errored packet 949090 at time 59342
Additional hops: 50533
Adding flit 949347 as NACK at time 59347
Reenqueueing errored packet 949499 at time 59349
Reenqueueing errored packet 949347 at time 59368
Additional hops: 50538
Adding flit 949910 as NACK at time 59368
Additional hops: 50544
Adding flit 949903 as NACK at time 59371
Reenqueueing errored packet 949910 at time 59379
Additional hops: 50548
Adding flit 950199 as NACK at time 59383
Reenqueueing errored packet 949903 at time 59384
Additional hops: 50555
Adding flit 950091 as NACK at time 59387
Additional hops: 50562
Adding flit 950114 as NACK at time 59387
Reenqueueing errored packet 950199 at time 59392
Additional hops: 50568
Adding flit 950314 as NACK at time 59398
Reenqueueing errored packet 950114 at time 59402
Reenqueueing errored packet 950091 at time 59402
Additional hops: 50579
Adding flit 950175 as NACK at time 59404
Additional hops: 50589
Adding flit 950274 as NACK at time 59407
Additional hops: 50600
Adding flit 950259 as NACK at time 59408
Additional hops: 50605
Adding flit 950610 as NACK at time 59410
Reenqueueing errored packet 950314 at time 59411
Additional hops: 50613
Adding flit 950616 as NACK at time 59419
Additional hops: 50625
Adding flit 950301 as NACK at time 59419
Additional hops: 50636
Adding flit 950451 as NACK at time 59420
Reenqueueing errored packet 950610 at time 59421
Reenqueueing errored packet 950175 at time 59427
Additional hops: 50642
Adding flit 950815 as NACK at time 59427
Additional hops: 50651
Adding flit 950641 as NACK at time 59427
Reenqueueing errored packet 950274 at time 59428
Reenqueueing errored packet 950259 at time 59431
Reenqueueing errored packet 950616 at time 59436
Additional hops: 50654
Adding flit 951085 as NACK at time 59436
Additional hops: 50658
Adding flit 951035 as NACK at time 59436
Additional hops: 50669
Adding flit 950738 as NACK at time 59438
Reenqueueing errored packet 950815 at time 59440
Reenqueueing errored packet 951085 at time 59443
Reenqueueing errored packet 950451 at time 59443
Reenqueueing errored packet 950301 at time 59444
Reenqueueing errored packet 951035 at time 59445
Reenqueueing errored packet 950641 at time 59446
Additional hops: 50674
Adding flit 951114 as NACK at time 59446
Additional hops: 50685
Adding flit 950864 as NACK at time 59446
Reenqueueing errored packet 951114 at time 59457
Additional hops: 50692
Adding flit 951237 as NACK at time 59458
Reenqueueing errored packet 950738 at time 59461
Reenqueueing errored packet 950864 at time 59469
Additional hops: 50700
Adding flit 951438 as NACK at time 59472
Reenqueueing errored packet 951237 at time 59473
Additional hops: 50704
Adding flit 951828 as NACK at time 59484
Additional hops: 50708
Adding flit 951848 as NACK at time 59484
Reenqueueing errored packet 951438 at time 59489
Reenqueueing errored packet 951848 at time 59493
Reenqueueing errored packet 951828 at time 59493
Additional hops: 50714
Adding flit 951918 as NACK at time 59495
Reenqueueing errored packet 951918 at time 59508
Additional hops: 50728
Adding flit 951695 as NACK at time 59508
Additional hops: 50735
Adding flit 952159 as NACK at time 59512
Additional hops: 50741
Adding flit 952354 as NACK at time 59520
Additional hops: 50743
Adding flit 952667 as NACK at time 59525
Additional hops: 50750
Adding flit 952404 as NACK at time 59525
Reenqueueing errored packet 952159 at time 59527
Additional hops: 50761
Adding flit 952207 as NACK at time 59527
Additional hops: 50768
Adding flit 952420 as NACK at time 59529
Reenqueueing errored packet 952667 at time 59530
Additional hops: 50775
Adding flit 952490 as NACK at time 59530
Reenqueueing errored packet 952354 at time 59533
Reenqueueing errored packet 951695 at time 59537
Reenqueueing errored packet 952404 at time 59540
Reenqueueing errored packet 952420 at time 59544
Reenqueueing errored packet 952490 at time 59545
Additional hops: 50783
Adding flit 952689 as NACK at time 59545
Additional hops: 50794
Adding flit 952503 as NACK at time 59546
Reenqueueing errored packet 952207 at time 59550
Reenqueueing errored packet 952689 at time 59562
Reenqueueing errored packet 952503 at time 59569
Additional hops: 50803
Adding flit 953153 as NACK at time 59580
Additional hops: 50806
Adding flit 953546 as NACK at time 59587
Additional hops: 50815
Adding flit 953406 as NACK at time 59592
Reenqueueing errored packet 953546 at time 59594
Reenqueueing errored packet 953153 at time 59599
Additional hops: 50825
Adding flit 953499 as NACK at time 59604
Reenqueueing errored packet 953406 at time 59611
Additional hops: 50830
Adding flit 953910 as NACK at time 59614
Additional hops: 50840
Adding flit 953676 as NACK at time 59615
Additional hops: 50846
Adding flit 953937 as NACK at time 59618
Reenqueueing errored packet 953910 at time 59625
Reenqueueing errored packet 953499 at time 59625
Additional hops: 50851
Adding flit 954094 as NACK at time 59628
Reenqueueing errored packet 953937 at time 59631
Additional hops: 50864
Adding flit 953747 as NACK at time 59631
Reenqueueing errored packet 953676 at time 59636
Reenqueueing errored packet 954094 at time 59639
Additional hops: 50875
Adding flit 954181 as NACK at time 59647
Additional hops: 50881
Adding flit 954518 as NACK at time 59654
Reenqueueing errored packet 953747 at time 59658
Additional hops: 50885
Adding flit 954782 as NACK at time 59665
Reenqueueing errored packet 954518 at time 59667
Reenqueueing errored packet 954181 at time 59670
Reenqueueing errored packet 954782 at time 59674
Additional hops: 50896
Adding flit 954578 as NACK at time 59674
Additional hops: 50904
Adding flit 954766 as NACK at time 59676
Additional hops: 50906
Adding flit 955160 as NACK at time 59680
Additional hops: 50915
Adding flit 954776 as NACK at time 59680
Additional hops: 50919
Adding flit 955078 as NACK at time 59681
Reenqueueing errored packet 955160 at time 59685
Reenqueueing errored packet 955078 at time 59690
Reenqueueing errored packet 954766 at time 59693
Reenqueueing errored packet 954578 at time 59697
Additional hops: 50924
Adding flit 955269 as NACK at time 59697
Reenqueueing errored packet 954776 at time 59699
Reenqueueing errored packet 955269 at time 59708
Additional hops: 50930
Adding flit 955436 as NACK at time 59710
Reenqueueing errored packet 955436 at time 59723
Additional hops: 50948
Adding flit 954776 as NACK at time 59728
Additional hops: 50956
Adding flit 955665 as NACK at time 59736
Additional hops: 50964
Adding flit 955998 as NACK at time 59750
Reenqueueing errored packet 955665 at time 59753
Additional hops: 50973
Adding flit 956151 as NACK at time 59763
Reenqueueing errored packet 954776 at time 59765
Reenqueueing errored packet 955998 at time 59767
Additional hops: 50979
Adding flit 956510 as NACK at time 59778
Reenqueueing errored packet 956151 at time 59782
Additional hops: 50990
Adding flit 956327 as NACK at time 59782
Reenqueueing errored packet 956510 at time 59791
Additional hops: 50993
Adding flit 956940 as NACK at time 59796
Reenqueueing errored packet 956940 at time 59803
Reenqueueing errored packet 956327 at time 59805
Additional hops: 51000
Adding flit 956958 as NACK at time 59811
Additional hops: 51004
Adding flit 957200 as NACK at time 59815
Reenqueueing errored packet 957200 at time 59824
Reenqueueing errored packet 956958 at time 59826
Additional hops: 51015
Adding flit 957243 as NACK at time 59842
Additional hops: 51024
Adding flit 957415 as NACK at time 59844
Additional hops: 51028
Adding flit 957952 as NACK at time 59862
Reenqueueing errored packet 957415 at time 59863
Reenqueueing errored packet 957243 at time 59865
Additional hops: 51034
Adding flit 957862 as NACK at time 59865
Additional hops: 51037
Adding flit 958110 as NACK at time 59870
Reenqueueing errored packet 957952 at time 59871
Reenqueueing errored packet 958110 at time 59877
Additional hops: 51044
Adding flit 958020 as NACK at time 59877
Reenqueueing errored packet 957862 at time 59878
Additional hops: 51053
Adding flit 958079 as NACK at time 59887
Reenqueueing errored packet 958020 at time 59892
Additional hops: 51060
Adding flit 958238 as NACK at time 59893
Additional hops: 51065
Adding flit 958528 as NACK at time 59903
Reenqueueing errored packet 958079 at time 59906
Reenqueueing errored packet 958238 at time 59908
Additional hops: 51076
Adding flit 958325 as NACK at time 59909
Reenqueueing errored packet 958528 at time 59914
Additional hops: 51082
Adding flit 958647 as NACK at time 59914
Reenqueueing errored packet 958647 at time 59927
Reenqueueing errored packet 958325 at time 59932
Additional hops: 51092
Adding flit 958717 as NACK at time 59934
Additional hops: 51096
Adding flit 959082 as NACK at time 59935
Additional hops: 51107
Adding flit 958747 as NACK at time 59938
Reenqueueing errored packet 959082 at time 59944
Additional hops: 51117
Adding flit 958958 as NACK at time 59948
Reenqueueing errored packet 958717 at time 59955
Reenqueueing errored packet 958747 at time 59961
Additional hops: 51124
Adding flit 959382 as NACK at time 59964
Reenqueueing errored packet 958958 at time 59969
Additional hops: 51128
Adding flit 959725 as NACK at time 59975
Reenqueueing errored packet 959382 at time 59979
Additional hops: 51134
Adding flit 959672 as NACK at time 59980
Reenqueueing errored packet 959725 at time 59984
Reenqueueing errored packet 959672 at time 59993
Additional hops: 51142
Adding flit 959847 as NACK at time 59993
Additional hops: 51154
Adding flit 959636 as NACK at time 59997
Class 0:
Packet latency average = 21.9891
	minimum = 5
	maximum = 212
Network latency average = 21.69
	minimum = 5
	maximum = 59
Slowest packet = 480544
Flit latency average = 21.693
	minimum = 5
	maximum = 59
Slowest flit = 529974
Fragmentation average = 0
	minimum = 0
	maximum = 0
Injected packet rate average = 0.251792
	minimum = 0.243267 (at node 59)
	maximum = 0.2582 (at node 40)
Accepted packet rate average = 0.251785
	minimum = 0.245033 (at node 4)
	maximum = 0.2581 (at node 15)
Injected flit rate average = 0.251792
	minimum = 0.243267 (at node 59)
	maximum = 0.2582 (at node 40)
Accepted flit rate average= 0.251785
	minimum = 0.245033 (at node 4)
	maximum = 0.2581 (at node 15)
Injected packet length average = 1
Accepted packet length average = 1
Total in-flight flits = 377 (376 measured)
latency change    = 0.00105472
throughput change = 0.000340278
Draining all recorded packets ...
Reenqueueing errored packet 959847 at time 60010
Reenqueueing errored packet 959636 at time 60022
Class 0:
Remaining flits: 446953 517639 517686 975757 975785 975786 975851 975887 975890 975893 [...] (359 flits)
Measured flits: 517639 517686 (2 flits)
Class 0:
Remaining flits: 446953 517639 517686 991792 991794 991801 991821 991822 991824 991825 [...] (361 flits)
Measured flits: 517639 517686 (2 flits)
Class 0:
Remaining flits: 446953 517639 517686 1007861 1007920 1007934 1007948 1007952 1007989 1008009 [...] (360 flits)
Measured flits: 517639 517686 (2 flits)
Class 0:
Remaining flits: 446953 517639 517686 1023949 1024044 1024077 1024081 1024082 1024083 1024085 [...] (356 flits)
Measured flits: 517639 517686 (2 flits)
Class 0:
Remaining flits: 446953 517639 517686 1040171 1040197 1040198 1040200 1040208 1040216 1040221 [...] (346 flits)
Measured flits: 517639 517686 (2 flits)
Class 0:
Remaining flits: 446953 517639 517686 1055874 1055933 1055946 1055952 1055986 1056010 1056013 [...] (375 flits)
Measured flits: 517639 517686 (2 flits)
Class 0:
Remaining flits: 446953 517639 517686 1071835 1071865 1071916 1071919 1071928 1071929 1071934 [...] (363 flits)
Measured flits: 517639 517686 (2 flits)
Draining remaining packets ...
Class 0:
Remaining flits: 446953 517639 517686 (3 flits)
Measured flits: 517639 517686 (2 flits)
WARNING: Possible network deadlock.
Class 0:
Remaining flits: 446953 517639 517686 (3 flits)
Measured flits: 517639 517686 (2 flits)
WARNING: Possible network deadlock.
Class 0:
Remaining flits: 446953 517639 517686 (3 flits)
Measured flits: 517639 517686 (2 flits)
WARNING: Possible network deadlock.
Class 0:
Remaining flits: 446953 517639 517686 (3 flits)
Measured flits: 517639 517686 (2 flits)
Time taken is 68000 cycles
====== Overall Traffic Statistics ======
====== Traffic class 0 ======
Packet latency average = 21.9925 (1 samples)
	minimum = 5 (1 samples)
	maximum = 212 (1 samples)
Network latency average = 21.693 (1 samples)
	minimum = 5 (1 samples)
	maximum = 59 (1 samples)
Flit latency average = 21.694 (1 samples)
	minimum = 5 (1 samples)
	maximum = 59 (1 samples)
Fragmentation average = 0 (1 samples)
	minimum = 0 (1 samples)
	maximum = 0 (1 samples)
Injected packet rate average = 0.251792 (1 samples)
	minimum = 0.243267 (1 samples)
	maximum = 0.2582 (1 samples)
Accepted packet rate average = 0.251785 (1 samples)
	minimum = 0.245033 (1 samples)
	maximum = 0.2581 (1 samples)
Injected flit rate average = 0.251792 (1 samples)
	minimum = 0.243267 (1 samples)
	maximum = 0.2582 (1 samples)
Accepted flit rate average = 0.251785 (1 samples)
	minimum = 0.245033 (1 samples)
	maximum = 0.2581 (1 samples)
Injected packet size average = 1 (1 samples)
Accepted packet size average = 1 (1 samples)
Hops average = 6.30244 (1 samples)
Total run time 151.923
