BEGIN Configuration File: examples/ecc_mesh88_config_1_0.750_link_1
// $Id$

// Copyright (c) 2007-2015, Trustees of The Leland Stanford Junior University
// All rights reserved.
//
// Redistribution and use in source and binary forms, with or without
// modification, are permitted provided that the following conditions are met:
//
// Redistributions of source code must retain the above copyright notice, this
// list of conditions and the following disclaimer.
// Redistributions in binary form must reproduce the above copyright notice,
// this list of conditions and the following disclaimer in the documentation
// and/or other materials provided with the distribution.
//
// THIS SOFTWARE IS PROVIDED BY THE COPYRIGHT HOLDERS AND CONTRIBUTORS "AS IS"
// AND ANY EXPRESS OR IMPLIED WARRANTIES, INCLUDING, BUT NOT LIMITED TO, THE
// IMPLIED WARRANTIES OF MERCHANTABILITY AND FITNESS FOR A PARTICULAR PURPOSE
// ARE DISCLAIMED. IN NO EVENT SHALL THE COPYRIGHT OWNER OR CONTRIBUTORS BE
// LIABLE FOR ANY DIRECT, INDIRECT, INCIDENTAL, SPECIAL, EXEMPLARY, OR
// CONSEQUENTIAL DAMAGES (INCLUDING, BUT NOT LIMITED TO, PROCUREMENT OF
// SUBSTITUTE GOODS OR SERVICES; LOSS OF USE, DATA, OR PROFITS; OR BUSINESS
// INTERRUPTION) HOWEVER CAUSED AND ON ANY THEORY OF LIABILITY, WHETHER IN
// CONTRACT, STRICT LIABILITY, OR TORT (INCLUDING NEGLIGENCE OR OTHERWISE)
// ARISING IN ANY WAY OUT OF THE USE OF THIS SOFTWARE, EVEN IF ADVISED OF THE
// POSSIBILITY OF SUCH DAMAGE.

// Dragonfly
//




vc_buf_size = 256;


wait_for_tail_credit = 0;

//
// Router architecture
//
vc_allocator = separable_input_first; 
sw_allocator = separable_input_first;
alloc_iters  = 1;

credit_delay   = 2;
routing_delay  = 0;
vc_alloc_delay = 1;
sw_alloc_delay = 1;
st_final_delay = 1;

input_speedup     = 1;
output_speedup    = 1;
internal_speedup  = 2.0;


warmup_periods = 3;
sim_count          = 1;

sample_period  = 10000;  


routing_function = dor;
num_vcs     = 2;

priority = none;
traffic       = uniform; 

injection_rate = 0.75;
packet_size = 1;
injection_rate_uses_flits=1;

topology = mesh;

k  = 8;
n  = 2;

fer = 1;
ecc = link;
correctable = 1;

watch_out=-;
watch_file = watch.txt;

ecc = link;

stats_out = examples/ecc_mesh88_config_1_0.750_link_1.m;

END Configuration File: examples/ecc_mesh88_config_1_0.750_link_1
Requeued flit 106
Requeued flit 82
Requeued flit 132
Requeued flit 219
Requeued flit 154
Requeued flit 212
Requeued flit 94
Requeued flit 199
Requeued flit 33
Requeued flit 133
Requeued flit 11
Requeued flit 343
Requeued flit 243
Requeued flit 214
Requeued flit 117
Requeued flit 396
Requeued flit 136
Requeued flit 181
Requeued flit 182
Requeued flit 583
Requeued flit 340
Requeued flit 382
Requeued flit 265
Requeued flit 110
Requeued flit 646
Requeued flit 525
Requeued flit 177
Requeued flit 405
Requeued flit 614
Requeued flit 429
Requeued flit 685
Requeued flit 46
Requeued flit 653
Requeued flit 100
Requeued flit 288
Requeued flit 50
Requeued flit 455
Requeued flit 4
Requeued flit 192
Requeued flit 537
Requeued flit 77
Requeued flit 316
Requeued flit 465
Requeued flit 5
Requeued flit 12
Requeued flit 175
Requeued flit 202
Requeued flit 297
Requeued flit 748
Requeued flit 424
Requeued flit 209
Requeued flit 257
Requeued flit 730
Requeued flit 594
Requeued flit 163
Requeued flit 832
Requeued flit 694
Requeued flit 143
Requeued flit 290
Requeued flit 255
Requeued flit 9
Requeued flit 943
Requeued flit 430
Requeued flit 590
Requeued flit 33
Requeued flit 80
Requeued flit 183
Requeued flit 111
Requeued flit 340
Requeued flit 416
Requeued flit 198
Requeued flit 737
Requeued flit 1069
Requeued flit 114
Requeued flit 438
Requeued flit 68
Requeued flit 307
Requeued flit 516
Requeued flit 720
Requeued flit 860
Requeued flit 259
Requeued flit 779
Requeued flit 1217
Requeued flit 1234
Requeued flit 707
Requeued flit 1043
Requeued flit 618
Requeued flit 140
Requeued flit 1126
Requeued flit 83
Requeued flit 675
Requeued flit 918
Requeued flit 85
Requeued flit 594
Requeued flit 191
Requeued flit 1321
Requeued flit 898
Requeued flit 1348
Requeued flit 788
Requeued flit 1176
Requeued flit 1082
Requeued flit 411
Requeued flit 314
Requeued flit 581
Requeued flit 572
Requeued flit 568
Requeued flit 909
Requeued flit 571
Requeued flit 398
Requeued flit 1368
Requeued flit 272
Requeued flit 1186
Requeued flit 1008
Requeued flit 1407
Requeued flit 636
Requeued flit 806
Requeued flit 1446
Requeued flit 1413
Requeued flit 1073
Requeued flit 1233
Requeued flit 268
Requeued flit 1325
Requeued flit 1152
Requeued flit 733
Requeued flit 477
Requeued flit 1202
Requeued flit 1213
Requeued flit 439
Requeued flit 944
Requeued flit 222
Requeued flit 904
Requeued flit 980
Requeued flit 557
Requeued flit 878
Requeued flit 1499
Requeued flit 848
Requeued flit 378
Requeued flit 786
Requeued flit 690
Requeued flit 1278
Requeued flit 1043
Requeued flit 768
Requeued flit 723
Requeued flit 655
Requeued flit 939
Requeued flit 1017
Requeued flit 850
Requeued flit 193
Requeued flit 761
Requeued flit 1580
Requeued flit 484
Requeued flit 1119
Requeued flit 1382
Requeued flit 262
Requeued flit 1482
Requeued flit 895
Requeued flit 1819
Requeued flit 1551
Requeued flit 783
Requeued flit 1741
Requeued flit 519
Requeued flit 920
Requeued flit 1891
Requeued flit 1411
Requeued flit 1091
Requeued flit 804
Requeued flit 841
Requeued flit 1962
Requeued flit 1096
Requeued flit 1825
Requeued flit 1347
Requeued flit 448
Requeued flit 1704
Requeued flit 551
Requeued flit 1300
Requeued flit 1831
Requeued flit 933
Requeued flit 2043
Requeued flit 1761
Requeued flit 1955
Requeued flit 1818
Requeued flit 2128
Requeued flit 1424
Requeued flit 513
Requeued flit 984
Requeued flit 846
Requeued flit 1814
Requeued flit 1491
Requeued flit 288
Requeued flit 951
Requeued flit 1931
Requeued flit 2186
Requeued flit 1634
Requeued flit 727
Requeued flit 378
Requeued flit 1264
Requeued flit 421
Requeued flit 823
Requeued flit 1897
Requeued flit 2059
Requeued flit 1627
Requeued flit 813
Requeued flit 1110
Requeued flit 1149
Requeued flit 1899
Requeued flit 2060
Requeued flit 956
Requeued flit 377
Requeued flit 2311
Requeued flit 1011
Requeued flit 968
Requeued flit 2033
Requeued flit 2101
Requeued flit 940
Requeued flit 2157
Requeued flit 2164
Requeued flit 1725
Requeued flit 1350
Requeued flit 967
Requeued flit 2175
Requeued flit 2322
Requeued flit 1668
Requeued flit 2153
Requeued flit 2346
Requeued flit 1985
Requeued flit 2043
Requeued flit 2094
Requeued flit 1628
Requeued flit 851
Requeued flit 1585
Requeued flit 1519
Requeued flit 757
Requeued flit 2446
Requeued flit 946
Requeued flit 2255
Requeued flit 437
Requeued flit 1900
Requeued flit 1780
Requeued flit 2155
Requeued flit 730
Requeued flit 1138
Requeued flit 862
Requeued flit 904
Requeued flit 1919
Requeued flit 2312
Requeued flit 1702
Requeued flit 709
Requeued flit 1495
Requeued flit 1568
Requeued flit 1326
Requeued flit 995
Requeued flit 937
Requeued flit 2234
Requeued flit 2400
Requeued flit 864
Requeued flit 1822
Requeued flit 2659
Requeued flit 448
Requeued flit 798
Requeued flit 1950
Requeued flit 1539
Requeued flit 1149
Requeued flit 1038
Requeued flit 1481
Requeued flit 563
Requeued flit 1937
Requeued flit 2811
Requeued flit 2096
Requeued flit 2449
Requeued flit 2837
Requeued flit 2307
Requeued flit 1527
Requeued flit 1339
Requeued flit 2563
Requeued flit 1880
Requeued flit 1367
Requeued flit 2910
Requeued flit 1479
Requeued flit 2330
Requeued flit 2277
Requeued flit 2219
Requeued flit 2835
Requeued flit 2248
Requeued flit 2209
Requeued flit 844
Requeued flit 2282
Requeued flit 1420
Requeued flit 2286
Requeued flit 1956
Requeued flit 2985
Requeued flit 2819
Requeued flit 993
Requeued flit 940
Requeued flit 2012
Requeued flit 1776
Requeued flit 2609
Requeued flit 2317
Requeued flit 2430
Requeued flit 2718
Requeued flit 1028
Requeued flit 3148
Requeued flit 1243
Requeued flit 1646
Requeued flit 2253
Requeued flit 2905
Requeued flit 1550
Requeued flit 3310
Requeued flit 574
Requeued flit 3120
Requeued flit 1275
Requeued flit 1905
Requeued flit 2650
Requeued flit 1609
Requeued flit 3050
Requeued flit 1172
Requeued flit 2791
Requeued flit 396
Requeued flit 1402
Requeued flit 2204
Requeued flit 3068
Requeued flit 2975
Requeued flit 703
Requeued flit 2238
Requeued flit 3428
Requeued flit 3176
Requeued flit 2019
Requeued flit 2374
Requeued flit 2690
Requeued flit 2341
Requeued flit 1675
Requeued flit 1355
Requeued flit 1847
Requeued flit 679
Requeued flit 2438
Requeued flit 1709
Requeued flit 2150
Requeued flit 1069
Requeued flit 2096
Requeued flit 1039
Requeued flit 3325
Requeued flit 3438
Requeued flit 2785
Requeued flit 1731
Requeued flit 1038
Requeued flit 1571
Requeued flit 3623
Requeued flit 3486
Requeued flit 3123
Requeued flit 3070
Requeued flit 2156
Requeued flit 3777
Requeued flit 2689
Requeued flit 2946
Requeued flit 1185
Requeued flit 1869
Requeued flit 1419
Requeued flit 1658
Requeued flit 3212
Requeued flit 1859
Requeued flit 2176
Requeued flit 3190
Requeued flit 3588
Requeued flit 1545
Requeued flit 2127
Requeued flit 2566
Requeued flit 1508
Requeued flit 3712
Requeued flit 3138
Requeued flit 3821
Requeued flit 2303
Requeued flit 1426
Requeued flit 3554
Requeued flit 3519
Requeued flit 3373
Requeued flit 3456
Requeued flit 3503
Requeued flit 2368
Requeued flit 2912
Requeued flit 1862
Requeued flit 3663
Requeued flit 1904
Requeued flit 2565
Requeued flit 1200
Requeued flit 1573
Requeued flit 4002
Requeued flit 1723
Requeued flit 2739
Requeued flit 3461
Requeued flit 2440
Requeued flit 670
Requeued flit 3475
Requeued flit 2881
Requeued flit 837
Requeued flit 3527
Requeued flit 3020
Requeued flit 4045
Requeued flit 4011
Requeued flit 1914
Requeued flit 1148
Requeued flit 2933
Requeued flit 2754
Requeued flit 1381
Requeued flit 2846
Requeued flit 2205
Requeued flit 3444
Requeued flit 3192
Requeued flit 1239
Requeued flit 3761
Requeued flit 3852
Requeued flit 4190
Requeued flit 1715
Requeued flit 1770
Requeued flit 1465
Requeued flit 3292
Requeued flit 3402
Requeued flit 2014
Requeued flit 2875
Requeued flit 4040
Requeued flit 2920
Requeued flit 3876
Requeued flit 2162
Requeued flit 1327
Requeued flit 1935
Requeued flit 4034
Requeued flit 2530
Requeued flit 3309
Requeued flit 2010
Requeued flit 3083
Requeued flit 2352
Requeued flit 2595
Requeued flit 1781
Requeued flit 2899
Requeued flit 2521
Requeued flit 3657
Requeued flit 3076
Requeued flit 3216
Requeued flit 3999
Requeued flit 4220
Requeued flit 3806
Requeued flit 4194
Requeued flit 1546
Requeued flit 4218
Requeued flit 3208
Requeued flit 1223
Requeued flit 1779
Requeued flit 1526
Requeued flit 3031
Requeued flit 4403
Requeued flit 3142
Requeued flit 3457
Requeued flit 2240
Requeued flit 4481
Requeued flit 2854
Requeued flit 2256
Requeued flit 2502
Requeued flit 3908
Requeued flit 3643
Requeued flit 1588
Requeued flit 2766
Requeued flit 1894
Requeued flit 1207
Requeued flit 1661
Requeued flit 3616
Requeued flit 4546
Requeued flit 4256
Requeued flit 1974
Requeued flit 2800
Requeued flit 2628
Requeued flit 4636
Requeued flit 1485
Requeued flit 3278
Requeued flit 3722
Requeued flit 4664
Requeued flit 3080
Requeued flit 3767
Requeued flit 2130
Requeued flit 2287
Requeued flit 1488
Requeued flit 4575
Requeued flit 2569
Requeued flit 940
Requeued flit 4008
Requeued flit 3090
Requeued flit 2088
Requeued flit 3674
Requeued flit 2559
Requeued flit 4421
Requeued flit 3704
Requeued flit 3954
Requeued flit 4014
Requeued flit 2884
Requeued flit 4319
Requeued flit 4791
Requeued flit 939
Requeued flit 3895
Requeued flit 4651
Requeued flit 4351
Requeued flit 3418
Requeued flit 4726
Requeued flit 4637
Requeued flit 1916
Requeued flit 3564
Requeued flit 3146
Requeued flit 4192
Requeued flit 3725
Requeued flit 3596
Requeued flit 1997
Requeued flit 4942
Requeued flit 1828
Requeued flit 1430
Requeued flit 1469
Requeued flit 2649
Requeued flit 3289
Requeued flit 2798
Requeued flit 4832
Requeued flit 3991
Requeued flit 4221
Requeued flit 1634
Requeued flit 3007
Requeued flit 2696
Requeued flit 2454
Requeued flit 3348
Requeued flit 4246
Requeued flit 4059
Requeued flit 2754
Requeued flit 4791
Requeued flit 3431
Requeued flit 4182
Requeued flit 2494
Requeued flit 5135
Requeued flit 4661
Requeued flit 3040
Requeued flit 1876
Requeued flit 3911
Requeued flit 4424
Requeued flit 2978
Requeued flit 1530
Requeued flit 2616
Requeued flit 2535
Requeued flit 4905
Requeued flit 5016
Requeued flit 3448
Requeued flit 4671
Requeued flit 3759
Requeued flit 2087
Requeued flit 2303
Requeued flit 4546
Requeued flit 3429
Requeued flit 5304
Requeued flit 3943
Requeued flit 3193
Requeued flit 4191
Requeued flit 2970
Requeued flit 2971
Requeued flit 2105
Requeued flit 2459
Requeued flit 1590
Requeued flit 2667
Requeued flit 4480
Requeued flit 5342
Requeued flit 1463
Requeued flit 1348
Requeued flit 3225
Requeued flit 1775
Requeued flit 2448
Requeued flit 1934
Requeued flit 1207
Requeued flit 2980
Requeued flit 4397
Requeued flit 1881
Requeued flit 2564
Requeued flit 5212
Requeued flit 2574
Requeued flit 1665
Requeued flit 3717
Requeued flit 1958
Requeued flit 2243
Requeued flit 5502
Requeued flit 3549
Requeued flit 4882
Requeued flit 3715
Requeued flit 2138
Requeued flit 5574
Requeued flit 5183
Requeued flit 1900
Requeued flit 2549
Requeued flit 3967
Requeued flit 3318
Requeued flit 3118
Requeued flit 2737
Requeued flit 2697
Requeued flit 5150
Requeued flit 1951
Requeued flit 2803
Requeued flit 5206
Requeued flit 3701
Requeued flit 3917
Requeued flit 4589
Requeued flit 5545
Requeued flit 4867
Requeued flit 1975
Requeued flit 4372
Requeued flit 4580
Requeued flit 4672
Requeued flit 3282
Requeued flit 3159
Requeued flit 4047
Requeued flit 3658
Requeued flit 2539
Requeued flit 2738
Requeued flit 4530
Requeued flit 3438
Requeued flit 3316
Requeued flit 2688
Requeued flit 5388
Requeued flit 5801
Requeued flit 3334
Requeued flit 2978
Requeued flit 4706
Requeued flit 4833
Requeued flit 2487
Requeued flit 2902
Requeued flit 2332
Requeued flit 3270
Requeued flit 3486
Requeued flit 5850
Requeued flit 4181
Requeued flit 4288
Requeued flit 4000
Requeued flit 4661
Requeued flit 4683
Requeued flit 3522
Requeued flit 5081
Requeued flit 3953
Requeued flit 5978
Requeued flit 5883
Requeued flit 5299
Requeued flit 3040
Requeued flit 4218
Requeued flit 2682
Requeued flit 1152
Requeued flit 4277
Requeued flit 2770
Requeued flit 4687
Requeued flit 3764
Requeued flit 4957
Requeued flit 4153
Requeued flit 3362
Requeued flit 3903
Requeued flit 2878
Requeued flit 4276
Requeued flit 3597
Requeued flit 3311
Requeued flit 1831
Requeued flit 3592
Requeued flit 5157
Requeued flit 4884
Requeued flit 6115
Requeued flit 5651
Requeued flit 4561
Requeued flit 2623
Requeued flit 5513
Requeued flit 4125
Requeued flit 2516
Requeued flit 6108
Requeued flit 2917
Requeued flit 2883
Requeued flit 3278
Requeued flit 2307
Requeued flit 3344
Requeued flit 5476
Requeued flit 3731
Requeued flit 5759
Requeued flit 3254
Requeued flit 3359
Requeued flit 2471
Requeued flit 5538
Requeued flit 5179
Requeued flit 6216
Requeued flit 6079
Requeued flit 6218
Requeued flit 4456
Requeued flit 5105
Requeued flit 3809
Requeued flit 5508
Requeued flit 5110
Requeued flit 6102
Requeued flit 2963
Requeued flit 5926
Requeued flit 2696
Requeued flit 6274
Requeued flit 5202
Requeued flit 6281
Requeued flit 5190
Requeued flit 3938
Requeued flit 5893
Requeued flit 3686
Requeued flit 4022
Requeued flit 5311
Requeued flit 3011
Requeued flit 3024
Requeued flit 5092
Requeued flit 4229
Requeued flit 3588
Requeued flit 3610
Requeued flit 3862
Requeued flit 5336
Requeued flit 3998
Requeued flit 3699
Requeued flit 4548
Requeued flit 5485
Requeued flit 5140
Requeued flit 3366
Requeued flit 4976
Requeued flit 4032
Requeued flit 3117
Requeued flit 6438
Requeued flit 3335
Requeued flit 4570
Requeued flit 5958
Requeued flit 4403
Requeued flit 5182
Requeued flit 5883
Requeued flit 2934
Requeued flit 6518
Requeued flit 1028
Requeued flit 6423
Requeued flit 6576
Requeued flit 4855
Requeued flit 5033
Requeued flit 3609
Requeued flit 6023
Requeued flit 5679
Requeued flit 5447
Requeued flit 6667
Requeued flit 4936
Requeued flit 2655
Requeued flit 3100
Requeued flit 5561
Requeued flit 3854
Requeued flit 3652
Requeued flit 3549
Requeued flit 5454
Requeued flit 3966
Requeued flit 4253
Requeued flit 3498
Requeued flit 3481
Requeued flit 2316
Requeued flit 5431
Requeued flit 6745
Requeued flit 5834
Requeued flit 4203
Requeued flit 3441
Requeued flit 3286
Requeued flit 6420
Requeued flit 2890
Requeued flit 4347
Requeued flit 4149
Requeued flit 3760
Requeued flit 6751
Requeued flit 6677
Requeued flit 3714
Requeued flit 4605
Requeued flit 2729
Requeued flit 1998
Requeued flit 2405
Requeued flit 3740
Requeued flit 4129
Requeued flit 2776
Requeued flit 4913
Requeued flit 6665
Requeued flit 3625
Requeued flit 3199
Requeued flit 5407
Requeued flit 5571
Requeued flit 6848
Requeued flit 3774
Requeued flit 4832
Requeued flit 2542
Requeued flit 2561
Requeued flit 4591
Requeued flit 3719
Requeued flit 2927
Requeued flit 7045
Requeued flit 4604
Requeued flit 7077
Requeued flit 4446
Requeued flit 4696
Requeued flit 6142
Requeued flit 3359
Requeued flit 7017
Requeued flit 6551
Requeued flit 5691
Requeued flit 3197
Requeued flit 4606
Requeued flit 6677
Requeued flit 5657
Requeued flit 7231
Requeued flit 7006
Requeued flit 7155
Requeued flit 5356
Requeued flit 5977
Requeued flit 6812
Requeued flit 4457
Requeued flit 7015
Requeued flit 6490
Requeued flit 7116
Requeued flit 7277
Requeued flit 4058
Requeued flit 3331
Requeued flit 3240
Requeued flit 3463
Requeued flit 5621
Requeued flit 6933
Requeued flit 7174
Requeued flit 2150
Requeued flit 5753
Requeued flit 5420
Requeued flit 3649
Requeued flit 5276
Requeued flit 3035
Requeued flit 7139
Requeued flit 5287
Requeued flit 5441
Requeued flit 7444
Requeued flit 3788
Requeued flit 5107
Requeued flit 5527
Requeued flit 3631
Requeued flit 4390
Requeued flit 3616
Requeued flit 5465
Requeued flit 7158
Requeued flit 4289
Requeued flit 6954
Requeued flit 4206
Requeued flit 4484
Requeued flit 5440
Requeued flit 4453
Requeued flit 1616
Requeued flit 6939
Requeued flit 5669
Requeued flit 5777
Requeued flit 7631
Requeued flit 3624
Requeued flit 6095
Requeued flit 7659
Requeued flit 5914
Requeued flit 3410
Requeued flit 5808
Requeued flit 3462
Requeued flit 4092
Requeued flit 3819
Requeued flit 7651
Requeued flit 4863
Requeued flit 6390
Requeued flit 2989
Requeued flit 4239
Requeued flit 2105
Requeued flit 4257
Requeued flit 5058
Requeued flit 4772
Requeued flit 3091
Requeued flit 2261
Requeued flit 3311
Requeued flit 7429
Requeued flit 6245
Requeued flit 4705
Requeued flit 5967
Requeued flit 4671
Requeued flit 7872
Requeued flit 7745
Requeued flit 5755
Requeued flit 5955
Requeued flit 6739
Requeued flit 5331
Requeued flit 4386
Requeued flit 3538
Requeued flit 6591
Requeued flit 4503
Requeued flit 5279
Requeued flit 4210
Requeued flit 7099
Requeued flit 7450
Requeued flit 3307
Requeued flit 5336
Requeued flit 6721
Requeued flit 5234
Requeued flit 3156
Requeued flit 7110
Requeued flit 6302
Requeued flit 4123
Requeued flit 6878
Requeued flit 5639
Requeued flit 4788
Requeued flit 7139
Requeued flit 5401
Requeued flit 4908
Requeued flit 3497
Requeued flit 4286
Requeued flit 7165
Requeued flit 7131
Requeued flit 6319
Requeued flit 7304
Requeued flit 7604
Requeued flit 2277
Requeued flit 5392
Requeued flit 5301
Requeued flit 8172
Requeued flit 3348
Requeued flit 6686
Requeued flit 2955
Requeued flit 3619
Requeued flit 4851
Requeued flit 3780
Requeued flit 5339
Requeued flit 6627
Requeued flit 5752
Requeued flit 6337
Requeued flit 3939
Requeued flit 6609
Requeued flit 8226
Requeued flit 2640
Requeued flit 6540
Requeued flit 7707
Requeued flit 8300
Requeued flit 8381
Requeued flit 4152
Requeued flit 4157
Requeued flit 4166
Requeued flit 5946
Requeued flit 5137
Requeued flit 6793
Requeued flit 5975
Requeued flit 8013
Requeued flit 6129
Requeued flit 5902
Requeued flit 3937
Requeued flit 8003
Requeued flit 7911
Requeued flit 4817
Requeued flit 6418
Requeued flit 7990
Requeued flit 1881
Requeued flit 8352
Requeued flit 3775
Requeued flit 4067
Requeued flit 7601
Requeued flit 6726
Requeued flit 4960
Requeued flit 5193
Requeued flit 6442
Requeued flit 7800
Requeued flit 3795
Requeued flit 6090
Requeued flit 3797
Requeued flit 3654
Requeued flit 5536
Requeued flit 3720
Requeued flit 8367
Requeued flit 6327
Requeued flit 3386
Requeued flit 6047
Requeued flit 4721
Requeued flit 4174
Requeued flit 4440
Requeued flit 7223
Requeued flit 7752
Requeued flit 2974
Requeued flit 6341
Requeued flit 7267
Requeued flit 8716
Requeued flit 3714
Requeued flit 7551
Requeued flit 5806
Requeued flit 7810
Requeued flit 7944
Requeued flit 7440
Requeued flit 6593
Requeued flit 4513
Requeued flit 7067
Requeued flit 8390
Requeued flit 6760
Requeued flit 4324
Requeued flit 2836
Requeued flit 6235
Requeued flit 4715
Requeued flit 7025
Requeued flit 3024
Requeued flit 4176
Requeued flit 2415
Requeued flit 8225
Requeued flit 2918
Requeued flit 3408
Requeued flit 7853
Requeued flit 7464
Requeued flit 4106
Requeued flit 5418
Requeued flit 8189
Requeued flit 6598
Requeued flit 5397
Requeued flit 4562
Requeued flit 6762
Requeued flit 7989
Requeued flit 3611
Requeued flit 5013
Requeued flit 5925
Requeued flit 3388
Requeued flit 4121
Requeued flit 6010
Requeued flit 4726
Requeued flit 7152
Requeued flit 4035
Requeued flit 6408
Requeued flit 7544
Requeued flit 3970
Requeued flit 5706
Requeued flit 6552
Requeued flit 7146
Requeued flit 7090
Requeued flit 5672
Requeued flit 7121
Requeued flit 6352
Requeued flit 7372
Requeued flit 4947
Requeued flit 7745
Requeued flit 9083
Requeued flit 9237
Requeued flit 8461
Requeued flit 2830
Requeued flit 6585
Requeued flit 4249
Requeued flit 9165
Requeued flit 9264
Requeued flit 5944
Requeued flit 3820
Requeued flit 7446
Requeued flit 7323
Requeued flit 5884
Requeued flit 6745
Requeued flit 8139
Requeued flit 6396
Requeued flit 9271
Requeued flit 8838
Requeued flit 8179
Requeued flit 5620
Requeued flit 7573
Requeued flit 4406
Requeued flit 9429
Requeued flit 8168
Requeued flit 9441
Requeued flit 5362
Requeued flit 7073
Requeued flit 7030
Requeued flit 6077
Requeued flit 4813
Requeued flit 4327
Requeued flit 3655
Requeued flit 3266
Requeued flit 6830
Requeued flit 9462
Requeued flit 7480
Requeued flit 6906
Requeued flit 9328
Requeued flit 3367
Requeued flit 9497
Requeued flit 5576
Requeued flit 7838
Requeued flit 9428
Requeued flit 3723
Requeued flit 3577
Requeued flit 5530
Requeued flit 5190
Requeued flit 4007
Requeued flit 9265
Requeued flit 9389
Requeued flit 6040
Requeued flit 5144
Requeued flit 9624
Requeued flit 6954
Requeued flit 5141
Requeued flit 8787
Requeued flit 4412
Requeued flit 8171
Requeued flit 8126
Requeued flit 6666
Requeued flit 5797
Requeued flit 3849
Requeued flit 3804
Requeued flit 4084
Requeued flit 9149
Requeued flit 4299
Requeued flit 5294
Requeued flit 5404
Requeued flit 8800
Requeued flit 4116
Requeued flit 3810
Requeued flit 5316
Requeued flit 9157
Requeued flit 4589
Requeued flit 7374
Requeued flit 3964
Requeued flit 8229
Requeued flit 6465
Requeued flit 8065
Requeued flit 6294
Requeued flit 5884
Requeued flit 4261
Requeued flit 7041
Requeued flit 5946
Requeued flit 5422
Requeued flit 9894
Requeued flit 4420
Requeued flit 8986
Requeued flit 8937
Requeued flit 8450
Requeued flit 7615
Requeued flit 5836
Requeued flit 6038
Requeued flit 8462
Requeued flit 7954
Requeued flit 4380
Requeued flit 9769
Requeued flit 4127
Requeued flit 9107
Requeued flit 10023
Requeued flit 4123
Requeued flit 3704
Requeued flit 6989
Requeued flit 5981
Requeued flit 7049
Requeued flit 4495
Requeued flit 8951
Requeued flit 9003
Requeued flit 7166
Requeued flit 8964
Requeued flit 9962
Requeued flit 4806
Requeued flit 5589
Requeued flit 10211
Requeued flit 7059
Requeued flit 7004
Requeued flit 7215
Requeued flit 8967
Requeued flit 10191
Requeued flit 9182
Requeued flit 6031
Requeued flit 2153
Requeued flit 8185
Requeued flit 5161
Requeued flit 9771
Requeued flit 8917
Requeued flit 10281
Requeued flit 6988
Requeued flit 4363
Requeued flit 4498
Requeued flit 7558
Requeued flit 7519
Requeued flit 4600
Requeued flit 9078
Requeued flit 8266
Requeued flit 4683
Requeued flit 6159
Requeued flit 5381
Requeued flit 4482
Requeued flit 4464
Requeued flit 6910
Requeued flit 8572
Requeued flit 6601
Requeued flit 9030
Requeued flit 8548
Requeued flit 8396
Requeued flit 5826
Requeued flit 4885
Requeued flit 8749
Requeued flit 8290
Requeued flit 7428
Requeued flit 4123
Requeued flit 7334
Requeued flit 4884
Requeued flit 5783
Requeued flit 5045
Requeued flit 5490
Requeued flit 7006
Requeued flit 9307
Requeued flit 9261
Requeued flit 8679
Requeued flit 9277
Requeued flit 6857
Requeued flit 9814
Requeued flit 6502
Requeued flit 5540
Requeued flit 8674
Requeued flit 6464
Requeued flit 4967
Requeued flit 8874
Requeued flit 6201
Requeued flit 8560
Requeued flit 6948
Requeued flit 2647
Requeued flit 3771
Requeued flit 8056
Requeued flit 4732
Requeued flit 9372
Requeued flit 9642
Requeued flit 6713
Requeued flit 6892
Requeued flit 10328
Requeued flit 9478
Requeued flit 10207
Requeued flit 10794
Requeued flit 4261
Requeued flit 7753
Requeued flit 4778
Requeued flit 5729
Requeued flit 10221
Requeued flit 7754
Requeued flit 5157
Requeued flit 8239
Requeued flit 5726
Requeued flit 7673
Requeued flit 4682
Requeued flit 10004
Requeued flit 9269
Requeued flit 10953
Requeued flit 6377
Requeued flit 9375
Requeued flit 9434
Requeued flit 7323
Requeued flit 9145
Requeued flit 4044
Requeued flit 8716
Requeued flit 10943
Requeued flit 9430
Requeued flit 8843
Requeued flit 7712
Requeued flit 9046
Requeued flit 6173
Requeued flit 6855
Requeued flit 8781
Requeued flit 9194
Requeued flit 9062
Requeued flit 10626
Requeued flit 10780
Requeued flit 9823
Requeued flit 5486
Requeued flit 6278
Requeued flit 6558
Requeued flit 3873
Requeued flit 8338
Requeued flit 7369
Requeued flit 3832
Requeued flit 4899
Requeued flit 8896
Requeued flit 7254
Requeued flit 8374
Requeued flit 6052
Requeued flit 7085
Requeued flit 9100
Requeued flit 10771
Requeued flit 9166
Requeued flit 11150
Requeued flit 10114
Requeued flit 9425
Requeued flit 4961
Requeued flit 11106
Requeued flit 4983
Requeued flit 10802
Requeued flit 6049
Requeued flit 9027
Requeued flit 5832
Requeued flit 4860
Requeued flit 6432
Requeued flit 9006
Requeued flit 8149
Requeued flit 4741
Requeued flit 5437
Requeued flit 9820
Requeued flit 6952
Requeued flit 5316
Requeued flit 9017
Requeued flit 7531
Requeued flit 10169
Requeued flit 8731
Requeued flit 10559
Requeued flit 7228
Requeued flit 4641
Requeued flit 6033
Requeued flit 4955
Requeued flit 5504
Requeued flit 7166
Requeued flit 9053
Requeued flit 8669
Requeued flit 8303
Requeued flit 5091
Requeued flit 7294
Requeued flit 9479
Requeued flit 5247
Requeued flit 9996
Requeued flit 5731
Requeued flit 5260
Requeued flit 9408
Requeued flit 9313
Requeued flit 6371
Requeued flit 7539
Requeued flit 5034
Requeued flit 11473
Requeued flit 3003
Requeued flit 7123
Requeued flit 6405
Requeued flit 9627
Requeued flit 8499
Requeued flit 3423
Requeued flit 8802
Requeued flit 8282
Requeued flit 8175
Requeued flit 11428
Requeued flit 5971
Requeued flit 3178
Requeued flit 6997
Requeued flit 7534
Requeued flit 6498
Requeued flit 9440
Requeued flit 4883
Requeued flit 5181
Requeued flit 7926
Requeued flit 8125
Requeued flit 6145
Requeued flit 7267
Requeued flit 11085
Requeued flit 11545
Requeued flit 9294
Requeued flit 11277
Requeued flit 6473
Requeued flit 10079
Requeued flit 8662
Requeued flit 5784
Requeued flit 7625
Requeued flit 9714
Requeued flit 7132
Requeued flit 4627
Requeued flit 11878
Requeued flit 5864
Requeued flit 5129
Requeued flit 6651
Requeued flit 11244
Requeued flit 10161
Requeued flit 6468
Requeued flit 8483
Requeued flit 9081
Requeued flit 9545
Requeued flit 11849
Requeued flit 6195
Requeued flit 8039
Requeued flit 5323
Requeued flit 10597
Requeued flit 8872
Requeued flit 6984
Requeued flit 6579
Requeued flit 7249
Requeued flit 10504
Requeued flit 11137
Requeued flit 11490
Requeued flit 12079
Requeued flit 8772
Requeued flit 7243
Requeued flit 10639
Requeued flit 5304
Requeued flit 6333
Requeued flit 8734
Requeued flit 8635
Requeued flit 5437
Requeued flit 5863
Requeued flit 11736
Requeued flit 7290
Requeued flit 9276
Requeued flit 10227
Requeued flit 4158
Requeued flit 7442
Requeued flit 8641
Requeued flit 8308
Requeued flit 8371
Requeued flit 10392
Requeued flit 11366
Requeued flit 7371
Requeued flit 9692
Requeued flit 12368
Requeued flit 12133
Requeued flit 5485
Requeued flit 10889
Requeued flit 6520
Requeued flit 10752
Requeued flit 9661
Requeued flit 7391
Requeued flit 6961
Requeued flit 9109
Requeued flit 5928
Requeued flit 9470
Requeued flit 9349
Requeued flit 5542
Requeued flit 10530
Requeued flit 6567
Requeued flit 12191
Requeued flit 11861
Requeued flit 5244
Requeued flit 8460
Requeued flit 5324
Requeued flit 11545
Requeued flit 9973
Requeued flit 10081
Requeued flit 7325
Requeued flit 10898
Requeued flit 10353
Requeued flit 5659
Requeued flit 10361
Requeued flit 5602
Requeued flit 11318
Requeued flit 6158
Requeued flit 12209
Requeued flit 11789
Requeued flit 6311
Requeued flit 9749
Requeued flit 8205
Requeued flit 11183
Requeued flit 12634
Requeued flit 6894
Requeued flit 12509
Requeued flit 5360
Requeued flit 9569
Requeued flit 11748
Requeued flit 10648
Requeued flit 6580
Requeued flit 8116
Requeued flit 11061
Requeued flit 9226
Requeued flit 10271
Requeued flit 12718
Requeued flit 6700
Requeued flit 7649
Requeued flit 7552
Requeued flit 8223
Requeued flit 5430
Requeued flit 12022
Requeued flit 9640
Requeued flit 8672
Requeued flit 8257
Requeued flit 8699
Requeued flit 10720
Requeued flit 6118
Requeued flit 7831
Requeued flit 11154
Requeued flit 12338
Requeued flit 6873
Requeued flit 10742
Requeued flit 5896
Requeued flit 11528
Requeued flit 11623
Requeued flit 5769
Requeued flit 8024
Requeued flit 10535
Requeued flit 8526
Requeued flit 5631
Requeued flit 11714
Requeued flit 5126
Requeued flit 7163
Requeued flit 8477
Requeued flit 6877
Requeued flit 10312
Requeued flit 6965
Requeued flit 6882
Requeued flit 12806
Requeued flit 10269
Requeued flit 10372
Requeued flit 12270
Requeued flit 11970
Requeued flit 7933
Requeued flit 12985
Requeued flit 11157
Requeued flit 6484
Requeued flit 5612
Requeued flit 10681
Requeued flit 8263
Requeued flit 8844
Requeued flit 5860
Requeued flit 6407
Requeued flit 12377
Requeued flit 12942
Requeued flit 11516
Requeued flit 10463
Requeued flit 8005
Requeued flit 11235
Requeued flit 5641
Requeued flit 9280
Requeued flit 5202
Requeued flit 12445
Requeued flit 11684
Requeued flit 10156
Requeued flit 10693
Requeued flit 9481
Requeued flit 13176
Requeued flit 5573
Requeued flit 8948
Requeued flit 11601
Requeued flit 11245
Requeued flit 13216
Requeued flit 8129
Requeued flit 8627
Requeued flit 8110
Requeued flit 7228
Requeued flit 8604
Requeued flit 7406
Requeued flit 9163
Requeued flit 7260
Requeued flit 7222
Requeued flit 7219
Requeued flit 12920
Requeued flit 12982
Requeued flit 8842
Requeued flit 11120
Requeued flit 7955
Requeued flit 13188
Requeued flit 6562
Requeued flit 11372
Requeued flit 9758
Requeued flit 9776
Requeued flit 5597
Requeued flit 5785
Requeued flit 9690
Requeued flit 13300
Requeued flit 13384
Requeued flit 13296
Requeued flit 11867
Requeued flit 12532
Requeued flit 10967
Requeued flit 8330
Requeued flit 10620
Requeued flit 13480
Requeued flit 5930
Requeued flit 13536
Requeued flit 11451
Requeued flit 7787
Requeued flit 10973
Requeued flit 13581
Requeued flit 6044
Requeued flit 5688
Requeued flit 10685
Requeued flit 10137
Requeued flit 9592
Requeued flit 13330
Requeued flit 13429
Requeued flit 10104
Requeued flit 13586
Requeued flit 5693
Requeued flit 9387
Requeued flit 5979
Requeued flit 13298
Requeued flit 13756
Requeued flit 13663
Requeued flit 10980
Requeued flit 9019
Requeued flit 13300
Requeued flit 11390
Requeued flit 12062
Requeued flit 13376
Requeued flit 13776
Requeued flit 5410
Requeued flit 13057
Requeued flit 11380
Requeued flit 6623
Requeued flit 9972
Requeued flit 13543
Requeued flit 9416
Requeued flit 6109
Requeued flit 6654
Requeued flit 11448
Requeued flit 11457
Requeued flit 12806
Requeued flit 10306
Requeued flit 8925
Requeued flit 9368
Requeued flit 10225
Requeued flit 10193
Requeued flit 3867
Requeued flit 10051
Requeued flit 8305
Requeued flit 8878
Requeued flit 11099
Requeued flit 5949
Requeued flit 9811
Requeued flit 11912
Requeued flit 6005
Requeued flit 10113
Requeued flit 9793
Requeued flit 12304
Requeued flit 6373
Requeued flit 8289
Requeued flit 9105
Requeued flit 12230
Requeued flit 7246
Requeued flit 14110
Requeued flit 9120
Requeued flit 12313
Requeued flit 11892
Requeued flit 11495
Requeued flit 14078
Requeued flit 11958
Requeued flit 12107
Requeued flit 7206
Requeued flit 10334
Requeued flit 10931
Requeued flit 11194
Requeued flit 10155
Requeued flit 10671
Requeued flit 10147
Requeued flit 7875
Requeued flit 11498
Requeued flit 12427
Requeued flit 10642
Requeued flit 10601
Requeued flit 13495
Requeued flit 11514
Requeued flit 11919
Requeued flit 9886
Requeued flit 6215
Requeued flit 10474
Requeued flit 11987
Requeued flit 7451
Requeued flit 9769
Requeued flit 12031
Requeued flit 14261
Requeued flit 7479
Requeued flit 11093
Requeued flit 11858
Requeued flit 13977
Requeued flit 5152
Requeued flit 10811
Requeued flit 9212
Requeued flit 10873
Requeued flit 11737
Requeued flit 10631
Requeued flit 10558
Requeued flit 11653
Requeued flit 13371
Requeued flit 6987
Requeued flit 12032
Requeued flit 8884
Requeued flit 11304
Requeued flit 11357
Requeued flit 7308
Requeued flit 14285
Requeued flit 10398
Requeued flit 13571
Requeued flit 12875
Requeued flit 14320
Requeued flit 11523
Requeued flit 11856
Requeued flit 8248
Requeued flit 7599
Requeued flit 6013
Requeued flit 9896
Requeued flit 11541
Requeued flit 10997
Requeued flit 8741
Requeued flit 10776
Requeued flit 8263
Requeued flit 13047
Requeued flit 5836
Requeued flit 7258
Requeued flit 4884
Requeued flit 12134
Requeued flit 12137
Requeued flit 10336
Requeued flit 12578
Requeued flit 8840
Requeued flit 9854
Requeued flit 13534
Requeued flit 12822
Requeued flit 11397
Requeued flit 13128
Requeued flit 10483
Requeued flit 9795
Requeued flit 11623
Requeued flit 14650
Requeued flit 8578
Requeued flit 14137
Requeued flit 8033
Requeued flit 14635
Requeued flit 14639
Requeued flit 9625
Requeued flit 11292
Requeued flit 12871
Requeued flit 8350
Requeued flit 9332
Requeued flit 11683
Requeued flit 7328
Requeued flit 10437
Requeued flit 11098
Requeued flit 8839
Requeued flit 7206
Requeued flit 5108
Requeued flit 14377
Requeued flit 7784
Requeued flit 14440
Requeued flit 8266
Requeued flit 14783
Requeued flit 9684
Requeued flit 12116
Requeued flit 7239
Requeued flit 12119
Requeued flit 14891
Requeued flit 11483
Requeued flit 12547
Requeued flit 10499
Requeued flit 9373
Requeued flit 10208
Requeued flit 13466
Requeued flit 9883
Requeued flit 10333
Requeued flit 7325
Requeued flit 7077
Requeued flit 12873
Requeued flit 14263
Requeued flit 7874
Requeued flit 14454
Requeued flit 7625
Requeued flit 5788
Requeued flit 11761
Requeued flit 11036
Requeued flit 7626
Requeued flit 14424
Requeued flit 9395
Requeued flit 7356
Requeued flit 7751
Requeued flit 11021
Requeued flit 8961
Requeued flit 12052
Requeued flit 11753
Requeued flit 12901
Requeued flit 12306
Requeued flit 6944
Requeued flit 13015
Requeued flit 12832
Requeued flit 13345
Requeued flit 8524
Requeued flit 15103
Requeued flit 14663
Requeued flit 7632
Requeued flit 8797
Requeued flit 9180
Requeued flit 7014
Requeued flit 11126
Requeued flit 11790
Requeued flit 15150
Requeued flit 9443
Requeued flit 9355
Requeued flit 14831
Requeued flit 9271
Requeued flit 12540
Requeued flit 11900
Requeued flit 10337
Requeued flit 10246
Requeued flit 9066
Requeued flit 6461
Requeued flit 8521
Requeued flit 13063
Requeued flit 9023
Requeued flit 11485
Requeued flit 14562
Requeued flit 14030
Requeued flit 10327
Requeued flit 9782
Requeued flit 8214
Requeued flit 7484
Requeued flit 7485
Requeued flit 7204
Requeued flit 11183
Requeued flit 10360
Requeued flit 6356
Requeued flit 14354
Requeued flit 11960
Requeued flit 8257
Requeued flit 5640
Requeued flit 13605
Requeued flit 7624
Requeued flit 11468
Requeued flit 7117
Requeued flit 14313
Requeued flit 14118
Requeued flit 12180
Requeued flit 9901
Requeued flit 12338
Requeued flit 10100
Requeued flit 11512
Requeued flit 9251
Requeued flit 8606
Requeued flit 5152
Requeued flit 11652
Requeued flit 7030
Requeued flit 15525
Requeued flit 9184
Requeued flit 12857
Requeued flit 13138
Requeued flit 12219
Requeued flit 6802
Requeued flit 9362
Requeued flit 11845
Requeued flit 15521
Requeued flit 12138
Requeued flit 8643
Requeued flit 13841
Requeued flit 12344
Requeued flit 8370
Requeued flit 12860
Requeued flit 15076
Requeued flit 5233
Requeued flit 9371
Requeued flit 15591
Requeued flit 10147
Requeued flit 8220
Requeued flit 13553
Requeued flit 15219
Requeued flit 8602
Requeued flit 11329
Requeued flit 14549
Requeued flit 11392
Requeued flit 15389
Requeued flit 14141
Requeued flit 15314
Requeued flit 14381
Requeued flit 12535
Requeued flit 6841
Requeued flit 6872
Requeued flit 11719
Requeued flit 13863
Requeued flit 9161
Requeued flit 12082
Requeued flit 12929
Requeued flit 6064
Requeued flit 10788
Requeued flit 10676
Requeued flit 4288
Requeued flit 10387
Requeued flit 8242
Requeued flit 13381
Requeued flit 13628
Requeued flit 15833
Requeued flit 14434
Requeued flit 8637
Requeued flit 8037
Requeued flit 9177
Requeued flit 15307
Requeued flit 12246
Requeued flit 7322
Requeued flit 7876
Requeued flit 13833
Requeued flit 13497
Requeued flit 12668
Requeued flit 9590
Requeued flit 13376
Requeued flit 10071
Requeued flit 13195
Requeued flit 14366
Requeued flit 7666
Requeued flit 12733
Requeued flit 12794
Requeued flit 11186
Requeued flit 11875
Requeued flit 13873
Requeued flit 12647
Requeued flit 10165
Requeued flit 16074
Requeued flit 16118
Requeued flit 8069
Requeued flit 5873
Requeued flit 8807
Requeued flit 11553
Requeued flit 16125
Requeued flit 13139
Requeued flit 15962
Requeued flit 12968
Requeued flit 7087
Requeued flit 7384
Requeued flit 8691
Requeued flit 8789
Requeued flit 12436
Requeued flit 13463
Requeued flit 12171
Requeued flit 5013
Requeued flit 10047
Requeued flit 15406
Requeued flit 9755
Requeued flit 12932
Requeued flit 5491
Requeued flit 10206
Requeued flit 16099
Requeued flit 8154
Requeued flit 16272
Requeued flit 14645
Requeued flit 10952
Requeued flit 13742
Requeued flit 12005
Requeued flit 6787
Requeued flit 9789
Requeued flit 8978
Requeued flit 6493
Requeued flit 7244
Requeued flit 11095
Requeued flit 9143
Requeued flit 16413
Requeued flit 10923
Requeued flit 5542
Requeued flit 9750
Requeued flit 7932
Requeued flit 13208
Requeued flit 10131
Requeued flit 5938
Requeued flit 7907
Requeued flit 5972
Requeued flit 5986
Requeued flit 6872
Requeued flit 14184
Requeued flit 9054
Requeued flit 15125
Requeued flit 13117
Requeued flit 10067
Requeued flit 4601
Requeued flit 8016
Requeued flit 14623
Requeued flit 9257
Requeued flit 8714
Requeued flit 11083
Requeued flit 10482
Requeued flit 7251
Requeued flit 8329
Requeued flit 13908
Requeued flit 12099
Requeued flit 16652
Requeued flit 9155
Requeued flit 8309
Requeued flit 15166
Requeued flit 12679
Requeued flit 15711
Requeued flit 10825
Requeued flit 16718
Requeued flit 6721
Requeued flit 8597
Requeued flit 9014
Requeued flit 7239
Requeued flit 16772
Requeued flit 15204
Requeued flit 13451
Requeued flit 13649
Requeued flit 10723
Requeued flit 10238
Requeued flit 8465
Requeued flit 7708
Requeued flit 13062
Requeued flit 16374
Requeued flit 16164
Requeued flit 11564
Requeued flit 14974
Requeued flit 12644
Requeued flit 13467
Requeued flit 15040
Requeued flit 13566
Requeued flit 16042
Requeued flit 10152
Requeued flit 17019
Requeued flit 16835
Requeued flit 4696
Requeued flit 8256
Requeued flit 9372
Requeued flit 14621
Requeued flit 14198
Requeued flit 9770
Requeued flit 10439
Requeued flit 9570
Requeued flit 10549
Requeued flit 7420
Requeued flit 8404
Requeued flit 7710
Requeued flit 14459
Requeued flit 15300
Requeued flit 17121
Requeued flit 16420
Requeued flit 15779
Requeued flit 9929
Requeued flit 17168
Requeued flit 17236
Requeued flit 17240
Requeued flit 17291
Requeued flit 10697
Requeued flit 14144
Requeued flit 11048
Requeued flit 14804
Requeued flit 13772
Requeued flit 14410
Requeued flit 7478
Requeued flit 8431
Requeued flit 11382
Requeued flit 8398
Requeued flit 13781
Requeued flit 11921
Requeued flit 10431
Requeued flit 17323
Requeued flit 9995
Requeued flit 8561
Requeued flit 17429
Requeued flit 10566
Requeued flit 7858
Requeued flit 17449
Requeued flit 7828
Requeued flit 9620
Requeued flit 13134
Requeued flit 12568
Requeued flit 17487
Requeued flit 8928
Requeued flit 17130
Requeued flit 17493
Requeued flit 11938
Requeued flit 9315
Requeued flit 6395
Requeued flit 10823
Requeued flit 17388
Requeued flit 14547
Requeued flit 17529
Requeued flit 9014
Requeued flit 16715
Requeued flit 11241
Requeued flit 13783
Requeued flit 8552
Requeued flit 12331
Requeued flit 17622
Requeued flit 16055
Requeued flit 11486
Requeued flit 15912
Requeued flit 12545
Requeued flit 13212
Requeued flit 13160
Requeued flit 13178
Requeued flit 8187
Requeued flit 15658
Requeued flit 16853
Requeued flit 17240
Requeued flit 10632
Requeued flit 9566
Requeued flit 14872
Requeued flit 12612
Requeued flit 6030
Requeued flit 8833
Requeued flit 13804
Requeued flit 17786
Requeued flit 14376
Requeued flit 17125
Requeued flit 10724
Requeued flit 11890
Requeued flit 7983
Requeued flit 7338
Requeued flit 17854
Requeued flit 9085
Requeued flit 9256
Requeued flit 8895
Requeued flit 10341
Requeued flit 14616
Requeued flit 11749
Requeued flit 12165
Requeued flit 11022
Requeued flit 8235
Requeued flit 15187
Requeued flit 17879
Requeued flit 8983
Requeued flit 10903
Requeued flit 17900
Requeued flit 15322
Requeued flit 11683
Requeued flit 14210
Requeued flit 17883
Requeued flit 14997
Requeued flit 9576
Requeued flit 9933
Requeued flit 17946
Requeued flit 9011
Requeued flit 17998
Requeued flit 15315
Requeued flit 14043
Requeued flit 7820
Requeued flit 11317
Requeued flit 13690
Requeued flit 11188
Requeued flit 8458
Requeued flit 10747
Requeued flit 14176
Requeued flit 14564
Requeued flit 10516
Requeued flit 18027
Requeued flit 11544
Requeued flit 14867
Requeued flit 7793
Requeued flit 12729
Requeued flit 6801
Requeued flit 17383
Requeued flit 17670
Requeued flit 18103
Requeued flit 5088
Requeued flit 7681
Requeued flit 15292
Requeued flit 15675
Requeued flit 7743
Requeued flit 12919
Requeued flit 6092
Requeued flit 14555
Requeued flit 9827
Requeued flit 15460
Requeued flit 16539
Requeued flit 16178
Requeued flit 18262
Requeued flit 15617
Requeued flit 10736
Requeued flit 18130
Requeued flit 8320
Requeued flit 6866
Requeued flit 11095
Requeued flit 18290
Requeued flit 10453
Requeued flit 9745
Requeued flit 12188
Requeued flit 16877
Requeued flit 6410
Requeued flit 7269
Requeued flit 7553
Requeued flit 17496
Requeued flit 17786
Requeued flit 9639
Requeued flit 18012
Requeued flit 11326
Requeued flit 12740
Requeued flit 11140
Requeued flit 8450
Requeued flit 13437
Requeued flit 8405
Requeued flit 7831
Requeued flit 15120
Requeued flit 8958
Requeued flit 8719
Requeued flit 7384
Requeued flit 9564
Requeued flit 7787
Requeued flit 11586
Requeued flit 7522
Requeued flit 14290
Requeued flit 12108
Requeued flit 11866
Requeued flit 8755
Requeued flit 15711
Requeued flit 14616
Requeued flit 12484
Requeued flit 8424
Requeued flit 8470
Requeued flit 8165
Requeued flit 14353
Requeued flit 15884
Requeued flit 14535
Requeued flit 14464
Requeued flit 6788
Requeued flit 12032
Requeued flit 18605
Requeued flit 9325
Requeued flit 15314
Requeued flit 8913
Requeued flit 14579
Requeued flit 11139
Requeued flit 12530
Requeued flit 8125
Requeued flit 7612
Requeued flit 11634
Requeued flit 14247
Requeued flit 18693
Requeued flit 15392
Requeued flit 17745
Requeued flit 15569
Requeued flit 12036
Requeued flit 16938
Requeued flit 12473
Requeued flit 17119
Requeued flit 16852
Requeued flit 11162
Requeued flit 16545
Requeued flit 11788
Requeued flit 11341
Requeued flit 14807
Requeued flit 18014
Requeued flit 13648
Requeued flit 12666
Requeued flit 11147
Requeued flit 16435
Requeued flit 18912
Requeued flit 16713
Requeued flit 13772
Requeued flit 15574
Requeued flit 10153
Requeued flit 17994
Requeued flit 10146
Requeued flit 12297
Requeued flit 10675
Requeued flit 11131
Requeued flit 18959
Requeued flit 13238
Requeued flit 13071
Requeued flit 17438
Requeued flit 16671
Requeued flit 10025
Requeued flit 14037
Requeued flit 16443
Requeued flit 16157
Requeued flit 12263
Requeued flit 9000
Requeued flit 14633
Requeued flit 17125
Requeued flit 11239
Requeued flit 14330
Requeued flit 13158
Requeued flit 18271
Requeued flit 16532
Requeued flit 9408
Requeued flit 16948
Requeued flit 18803
Requeued flit 12924
Requeued flit 18908
Requeued flit 13438
Requeued flit 14151
Requeued flit 11856
Requeued flit 11146
Requeued flit 11835
Requeued flit 17629
Requeued flit 16153
Requeued flit 17047
Requeued flit 10528
Requeued flit 14577
Requeued flit 9775
Requeued flit 9709
Requeued flit 16974
Requeued flit 11028
Requeued flit 12296
Requeued flit 13520
Requeued flit 12594
Requeued flit 9904
Requeued flit 14860
Requeued flit 10819
Requeued flit 15817
Requeued flit 16151
Requeued flit 15841
Requeued flit 19015
Requeued flit 10863
Requeued flit 19494
Requeued flit 16227
Requeued flit 11176
Requeued flit 17733
Requeued flit 11787
Requeued flit 16569
Requeued flit 8109
Requeued flit 15522
Requeued flit 11594
Requeued flit 13677
Requeued flit 14779
Requeued flit 8530
Requeued flit 19547
Requeued flit 14200
Requeued flit 19623
Requeued flit 8320
Requeued flit 19601
Requeued flit 10768
Requeued flit 19661
Requeued flit 13990
Requeued flit 18827
Requeued flit 18193
Requeued flit 16269
Requeued flit 14748
Requeued flit 19625
Requeued flit 13663
Requeued flit 19734
Requeued flit 8907
Requeued flit 9563
Requeued flit 10338
Requeued flit 16799
Requeued flit 8912
Requeued flit 19806
Requeued flit 19811
Requeued flit 9928
Requeued flit 16926
Requeued flit 18094
Requeued flit 13103
Requeued flit 19355
Requeued flit 12207
Requeued flit 19752
Requeued flit 18729
Requeued flit 11231
Requeued flit 19130
Requeued flit 17052
Requeued flit 12604
Requeued flit 16123
Requeued flit 14405
Requeued flit 6808
Requeued flit 8351
Requeued flit 19856
Requeued flit 17354
Requeued flit 12564
Requeued flit 9028
Requeued flit 6843
Requeued flit 16892
Requeued flit 14288
Requeued flit 16607
Requeued flit 18903
Requeued flit 17200
Requeued flit 9677
Requeued flit 19887
Requeued flit 15987
Requeued flit 7786
Requeued flit 9903
Requeued flit 10054
Requeued flit 9657
Requeued flit 10728
Requeued flit 9705
Requeued flit 11733
Requeued flit 14547
Requeued flit 10378
Requeued flit 18707
Requeued flit 19931
Requeued flit 18192
Requeued flit 15468
Requeued flit 4772
Requeued flit 9021
Requeued flit 16741
Requeued flit 20043
Requeued flit 17438
Requeued flit 16932
Requeued flit 11527
Requeued flit 10458
Requeued flit 10032
Requeued flit 12634
Requeued flit 17091
Requeued flit 17157
Requeued flit 10540
Requeued flit 8804
Requeued flit 16490
Requeued flit 16899
Requeued flit 11724
Requeued flit 16657
Requeued flit 12322
Requeued flit 10890
Requeued flit 18233
Requeued flit 18089
Requeued flit 17304
Requeued flit 20175
Requeued flit 17970
Requeued flit 11500
Requeued flit 20057
Requeued flit 9867
Requeued flit 12833
Requeued flit 20208
Requeued flit 11459
Requeued flit 10365
Requeued flit 14873
Requeued flit 10961
Requeued flit 7092
Requeued flit 20252
Requeued flit 9305
Requeued flit 10201
Requeued flit 15012
Requeued flit 7021
Requeued flit 11571
Requeued flit 12397
Requeued flit 19466
Requeued flit 14554
Requeued flit 16665
Requeued flit 8672
Requeued flit 15344
Requeued flit 16113
Requeued flit 14651
Requeued flit 12490
Requeued flit 12403
Requeued flit 9696
Requeued flit 12868
Requeued flit 13519
Requeued flit 20348
Requeued flit 17710
Requeued flit 16633
Requeued flit 10911
Requeued flit 6109
Requeued flit 15698
Requeued flit 14605
Requeued flit 20236
Requeued flit 11733
Requeued flit 17004
Requeued flit 11573
Requeued flit 14708
Requeued flit 14373
Requeued flit 20197
Requeued flit 13072
Requeued flit 12933
Requeued flit 8691
Requeued flit 20459
Requeued flit 14885
Requeued flit 11365
Requeued flit 10769
Requeued flit 16148
Requeued flit 16102
Requeued flit 12083
Requeued flit 13066
Requeued flit 16961
Requeued flit 11407
Requeued flit 14032
Requeued flit 12661
Requeued flit 15663
Requeued flit 9484
Requeued flit 17064
Requeued flit 13191
Requeued flit 16061
Requeued flit 12321
Requeued flit 13288
Requeued flit 9611
Requeued flit 18639
Requeued flit 11438
Requeued flit 17343
Requeued flit 17097
Requeued flit 15399
Requeued flit 16674
Requeued flit 18301
Requeued flit 17076
Requeued flit 9288
Requeued flit 15712
Requeued flit 19916
Requeued flit 17934
Requeued flit 8095
Requeued flit 9192
Requeued flit 7733
Requeued flit 20033
Requeued flit 7117
Requeued flit 20648
Requeued flit 20251
Requeued flit 13984
Requeued flit 17650
Requeued flit 10030
Requeued flit 19740
Requeued flit 10999
Requeued flit 20330
Requeued flit 11601
Requeued flit 18552
Requeued flit 14851
Requeued flit 10983
Requeued flit 10991
Requeued flit 13203
Requeued flit 18179
Requeued flit 20264
Requeued flit 13541
Requeued flit 16362
Requeued flit 6994
Requeued flit 12933
Requeued flit 12341
Requeued flit 17433
Requeued flit 19985
Requeued flit 20793
Requeued flit 16793
Requeued flit 11988
Requeued flit 20194
Requeued flit 16072
Requeued flit 9485
Requeued flit 19059
Requeued flit 9728
Requeued flit 8762
Requeued flit 18593
Requeued flit 20671
Requeued flit 7597
Requeued flit 7876
Requeued flit 11954
Requeued flit 15681
Requeued flit 8073
Requeued flit 11033
Requeued flit 19699
Requeued flit 20828
Requeued flit 20445
Requeued flit 17087
Requeued flit 8069
Requeued flit 20772
Requeued flit 11991
Requeued flit 12278
Requeued flit 10786
Requeued flit 11198
Requeued flit 17100
Requeued flit 19437
Requeued flit 16301
Requeued flit 18642
Requeued flit 17425
Requeued flit 16529
Requeued flit 16701
Requeued flit 11376
Requeued flit 20571
Requeued flit 13987
Requeued flit 20435
Requeued flit 18703
Requeued flit 8679
Requeued flit 18528
Requeued flit 13915
Requeued flit 16490
Requeued flit 21058
Requeued flit 16442
Requeued flit 18885
Requeued flit 9457
Requeued flit 16225
Requeued flit 18428
Requeued flit 17625
Requeued flit 21104
Requeued flit 10351
Requeued flit 9565
Requeued flit 10031
Requeued flit 21139
Requeued flit 14779
Requeued flit 13272
Requeued flit 18738
Requeued flit 20104
Requeued flit 11249
Requeued flit 10318
Requeued flit 18928
Requeued flit 16376
Requeued flit 11537
Requeued flit 19650
Requeued flit 18274
Requeued flit 13681
Requeued flit 19146
Requeued flit 14609
Requeued flit 16797
Requeued flit 14159
Requeued flit 8997
Requeued flit 16842
Requeued flit 13757
Requeued flit 11307
Requeued flit 11166
Requeued flit 12833
Requeued flit 14412
Requeued flit 15004
Requeued flit 21303
Requeued flit 20736
Requeued flit 11701
Requeued flit 10900
Requeued flit 18199
Requeued flit 13150
Requeued flit 21260
Requeued flit 8069
Requeued flit 20344
Requeued flit 12028
Requeued flit 10641
Requeued flit 18193
Requeued flit 15992
Requeued flit 15697
Requeued flit 13929
Requeued flit 19355
Requeued flit 16744
Requeued flit 11779
Requeued flit 20722
Requeued flit 11084
Requeued flit 9801
Requeued flit 13461
Requeued flit 12384
Requeued flit 19586
Requeued flit 13998
Requeued flit 20647
Requeued flit 12342
Requeued flit 21576
Requeued flit 19650
Requeued flit 17599
Requeued flit 21599
Requeued flit 10399
Requeued flit 8171
Requeued flit 18769
Requeued flit 20137
Requeued flit 18061
Requeued flit 11734
Requeued flit 19388
Requeued flit 14181
Requeued flit 12287
Requeued flit 13862
Requeued flit 19491
Requeued flit 11236
Requeued flit 8257
Requeued flit 11072
Requeued flit 18590
Requeued flit 17638
Requeued flit 21634
Requeued flit 14470
Requeued flit 11630
Requeued flit 15611
Requeued flit 19346
Requeued flit 17890
Requeued flit 12203
Requeued flit 21684
Requeued flit 15825
Requeued flit 12011
Requeued flit 12458
Requeued flit 10525
Requeued flit 9306
Requeued flit 8550
Requeued flit 18751
Requeued flit 17863
Requeued flit 14013
Requeued flit 19764
Requeued flit 17248
Requeued flit 11402
Requeued flit 10435
Requeued flit 12092
Requeued flit 18824
Requeued flit 18101
Requeued flit 10422
Requeued flit 18454
Requeued flit 12161
Requeued flit 12810
Requeued flit 21720
Requeued flit 10291
Requeued flit 9929
Requeued flit 18682
Requeued flit 16155
Requeued flit 18407
Requeued flit 12747
Requeued flit 11168
Requeued flit 21646
Requeued flit 21886
Requeued flit 13589
Requeued flit 16953
Requeued flit 10660
Requeued flit 12698
Requeued flit 18457
Requeued flit 10244
Requeued flit 17058
Requeued flit 21425
Requeued flit 20844
Requeued flit 14924
Requeued flit 13465
Requeued flit 12456
Requeued flit 18006
Requeued flit 17760
Requeued flit 11582
Requeued flit 12358
Requeued flit 18406
Requeued flit 21423
Requeued flit 13502
Requeued flit 21708
Requeued flit 15425
Requeued flit 6710
Requeued flit 19087
Requeued flit 18416
Requeued flit 14870
Requeued flit 14969
Requeued flit 20665
Requeued flit 18117
Requeued flit 22212
Requeued flit 14869
Requeued flit 13644
Requeued flit 14696
Requeued flit 18111
Requeued flit 11716
Requeued flit 13060
Requeued flit 11542
Requeued flit 10882
Requeued flit 13430
Requeued flit 14397
Requeued flit 22250
Requeued flit 22255
Requeued flit 20015
Requeued flit 10505
Requeued flit 16361
Requeued flit 14986
Requeued flit 17766
Requeued flit 19035
Requeued flit 12611
Requeued flit 22505
Requeued flit 22172
Requeued flit 17469
Requeued flit 15098
Requeued flit 8868
Requeued flit 13114
Requeued flit 18649
Requeued flit 11349
Requeued flit 19065
Requeued flit 15810
Requeued flit 19068
Requeued flit 12131
Requeued flit 22158
Requeued flit 8745
Requeued flit 11058
Requeued flit 16983
Requeued flit 19272
Requeued flit 18808
Requeued flit 10995
Requeued flit 14326
Requeued flit 19784
Requeued flit 12098
Requeued flit 18346
Requeued flit 11580
Requeued flit 16951
Requeued flit 22726
Requeued flit 12429
Requeued flit 22734
Requeued flit 22396
Requeued flit 14221
Requeued flit 9033
Requeued flit 10345
Requeued flit 14345
Requeued flit 13859
Requeued flit 18187
Requeued flit 20398
Requeued flit 8539
Requeued flit 13705
Requeued flit 18487
Requeued flit 9372
Requeued flit 11109
Requeued flit 19248
Requeued flit 8887
Requeued flit 18606
Requeued flit 17528
Requeued flit 19502
Requeued flit 11869
Requeued flit 17135
Requeued flit 15236
Requeued flit 22909
Requeued flit 14512
Requeued flit 10744
Requeued flit 13380
Requeued flit 19830
Requeued flit 15891
Requeued flit 19357
Requeued flit 17032
Requeued flit 22807
Requeued flit 17766
Requeued flit 18117
Requeued flit 9000
Requeued flit 13482
Requeued flit 22776
Requeued flit 20355
Requeued flit 11744
Requeued flit 19596
Requeued flit 22917
Requeued flit 10882
Requeued flit 12510
Requeued flit 18279
Requeued flit 19385
Requeued flit 20365
Requeued flit 15313
Requeued flit 23052
Requeued flit 22865
Requeued flit 18404
Requeued flit 13446
Requeued flit 12301
Requeued flit 17759
Requeued flit 23049
Requeued flit 19403
Requeued flit 14538
Requeued flit 19749
Requeued flit 15901
Requeued flit 19165
Requeued flit 21487
Requeued flit 12605
Requeued flit 19263
Requeued flit 15336
Requeued flit 11631
Requeued flit 22870
Requeued flit 19566
Requeued flit 20170
Requeued flit 23248
Requeued flit 17338
Requeued flit 23079
Requeued flit 15494
Requeued flit 22890
Requeued flit 21700
Requeued flit 21889
Requeued flit 16966
Requeued flit 17287
Requeued flit 18022
Requeued flit 12737
Requeued flit 14666
Requeued flit 12472
Requeued flit 15586
Requeued flit 12762
Requeued flit 23314
Requeued flit 18656
Requeued flit 23432
Requeued flit 12704
Requeued flit 15650
Requeued flit 23155
Requeued flit 9281
Requeued flit 9019
Requeued flit 20872
Requeued flit 15404
Requeued flit 19347
Requeued flit 23486
Requeued flit 20697
Requeued flit 14943
Requeued flit 19080
Requeued flit 18216
Requeued flit 22733
Requeued flit 10783
Requeued flit 23516
Requeued flit 13254
Requeued flit 19336
Requeued flit 14150
Requeued flit 14394
Requeued flit 14105
Requeued flit 23349
Requeued flit 19624
Requeued flit 15243
Requeued flit 21369
Requeued flit 13083
Requeued flit 12865
Requeued flit 18229
Requeued flit 17889
Requeued flit 10653
Requeued flit 14040
Requeued flit 13400
Requeued flit 17775
Requeued flit 14250
Requeued flit 18655
Requeued flit 14548
Requeued flit 10201
Requeued flit 16399
Requeued flit 23638
Requeued flit 21052
Requeued flit 19869
Requeued flit 15623
Requeued flit 23661
Requeued flit 12986
Requeued flit 15521
Requeued flit 15988
Requeued flit 14807
Requeued flit 11037
Requeued flit 14446
Requeued flit 21360
Requeued flit 21412
Requeued flit 9494
Requeued flit 23679
Requeued flit 18547
Requeued flit 11721
Requeued flit 19904
Requeued flit 19528
Requeued flit 19930
Requeued flit 9576
Requeued flit 14361
Requeued flit 10101
Requeued flit 19768
Requeued flit 23805
Requeued flit 13814
Requeued flit 18928
Requeued flit 13636
Requeued flit 9778
Requeued flit 15498
Requeued flit 20704
Requeued flit 12455
Requeued flit 21733
Requeued flit 21687
Requeued flit 23271
Requeued flit 13131
Requeued flit 18349
Requeued flit 19184
Requeued flit 12591
Requeued flit 16657
Requeued flit 23310
Requeued flit 24009
Requeued flit 11426
Requeued flit 23342
Requeued flit 18687
Requeued flit 12681
Requeued flit 20113
Requeued flit 13253
Requeued flit 23322
Requeued flit 20301
Requeued flit 14685
Requeued flit 23873
Requeued flit 9952
Requeued flit 13080
Requeued flit 20783
Requeued flit 16117
Requeued flit 13600
Requeued flit 10799
Requeued flit 15247
Requeued flit 16388
Requeued flit 11299
Requeued flit 22025
Requeued flit 12921
Requeued flit 14449
Requeued flit 24143
Requeued flit 16423
Requeued flit 8369
Requeued flit 17427
Requeued flit 12068
Requeued flit 11155
Requeued flit 14989
Requeued flit 14504
Requeued flit 9079
Requeued flit 23790
Requeued flit 24282
Requeued flit 21578
Requeued flit 23987
Requeued flit 19280
Requeued flit 11340
Requeued flit 23322
Requeued flit 11203
Requeued flit 14999
Requeued flit 19879
Requeued flit 11929
Requeued flit 11829
Requeued flit 22629
Requeued flit 13739
Requeued flit 10341
Requeued flit 14883
Requeued flit 19115
Requeued flit 11895
Requeued flit 19183
Requeued flit 20488
Requeued flit 23079
Requeued flit 21226
Requeued flit 13736
Requeued flit 21931
Requeued flit 15324
Requeued flit 14793
Requeued flit 19469
Requeued flit 14413
Requeued flit 20637
Requeued flit 19303
Requeued flit 24462
Requeued flit 7955
Requeued flit 12728
Requeued flit 24335
Requeued flit 19422
Requeued flit 15339
Requeued flit 13348
Requeued flit 12065
Requeued flit 17875
Requeued flit 19828
Requeued flit 22258
Requeued flit 18505
Requeued flit 14262
Requeued flit 23958
Requeued flit 12878
Requeued flit 14200
Requeued flit 13349
Requeued flit 24593
Requeued flit 11878
Requeued flit 20666
Requeued flit 8933
Requeued flit 12866
Requeued flit 22986
Requeued flit 19158
Requeued flit 8719
Requeued flit 9115
Requeued flit 16703
Requeued flit 23600
Requeued flit 13334
Requeued flit 20776
Requeued flit 24729
Requeued flit 12260
Requeued flit 18118
Requeued flit 16060
Requeued flit 21974
Requeued flit 17932
Requeued flit 19670
Requeued flit 15641
Requeued flit 21139
Requeued flit 20766
Requeued flit 19814
Requeued flit 22411
Requeued flit 21375
Requeued flit 21192
Requeued flit 23867
Requeued flit 19370
Requeued flit 15026
Requeued flit 8674
Requeued flit 24845
Requeued flit 21628
Requeued flit 22018
Requeued flit 13028
Requeued flit 13327
Requeued flit 19451
Requeued flit 19974
Requeued flit 11480
Requeued flit 21158
Requeued flit 22127
Requeued flit 24805
Requeued flit 20878
Requeued flit 12102
Requeued flit 24594
Requeued flit 22731
Requeued flit 10079
Requeued flit 10676
Requeued flit 23669
Requeued flit 15651
Requeued flit 16216
Requeued flit 24147
Requeued flit 16120
Requeued flit 12457
Requeued flit 25046
Requeued flit 16026
Requeued flit 21384
Requeued flit 18572
Requeued flit 20000
Requeued flit 12179
Requeued flit 15973
Requeued flit 11412
Requeued flit 11472
Requeued flit 12322
Requeued flit 7966
Requeued flit 21128
Requeued flit 10060
Requeued flit 18930
Requeued flit 10936
Requeued flit 25086
Requeued flit 15923
Requeued flit 13073
Requeued flit 16662
Requeued flit 11269
Requeued flit 25173
Requeued flit 21482
Requeued flit 25229
Requeued flit 20810
Requeued flit 21442
Requeued flit 16955
Requeued flit 12966
Requeued flit 12420
Requeued flit 21318
Requeued flit 16964
Requeued flit 15711
Requeued flit 21935
Requeued flit 24167
Requeued flit 21147
Requeued flit 25055
Requeued flit 19386
Requeued flit 10447
Requeued flit 20498
Requeued flit 11582
Requeued flit 25203
Requeued flit 16061
Requeued flit 15236
Requeued flit 9639
Requeued flit 22131
Requeued flit 15647
Requeued flit 21585
Requeued flit 11513
Requeued flit 13682
Requeued flit 12910
Requeued flit 18610
Requeued flit 15654
Requeued flit 14005
Requeued flit 20814
Requeued flit 14286
Requeued flit 13435
Requeued flit 16570
Requeued flit 23342
Requeued flit 11641
Requeued flit 24134
Requeued flit 15861
Requeued flit 18692
Requeued flit 20151
Requeued flit 16716
Requeued flit 25586
Requeued flit 21321
Requeued flit 14956
Requeued flit 18572
Requeued flit 13381
Requeued flit 10422
Requeued flit 19339
Requeued flit 12796
Requeued flit 11976
Requeued flit 20161
Requeued flit 14370
Requeued flit 16623
Requeued flit 18998
Requeued flit 16169
Requeued flit 17059
Requeued flit 21078
Requeued flit 14911
Requeued flit 12324
Requeued flit 16609
Requeued flit 11331
Requeued flit 11247
Requeued flit 15540
Requeued flit 23746
Requeued flit 17772
Requeued flit 24713
Requeued flit 22601
Requeued flit 24012
Requeued flit 21421
Requeued flit 24788
Requeued flit 7907
Requeued flit 20737
Requeued flit 16779
Requeued flit 19551
Requeued flit 14627
Requeued flit 21046
Requeued flit 19086
Requeued flit 13922
Requeued flit 22551
Requeued flit 25498
Requeued flit 14995
Requeued flit 16962
Requeued flit 12789
Requeued flit 25922
Requeued flit 25925
Requeued flit 20998
Requeued flit 20093
Requeued flit 16057
Requeued flit 12313
Requeued flit 16447
Requeued flit 12934
Requeued flit 25876
Requeued flit 13553
Requeued flit 25999
Requeued flit 21949
Requeued flit 20288
Requeued flit 14498
Requeued flit 11083
Requeued flit 26031
Requeued flit 14218
Requeued flit 26051
Requeued flit 13963
Requeued flit 20584
Requeued flit 16021
Requeued flit 19783
Requeued flit 13901
Requeued flit 16465
Requeued flit 17400
Requeued flit 20208
Requeued flit 22582
Requeued flit 17298
Requeued flit 26170
Requeued flit 15866
Requeued flit 10952
Requeued flit 11655
Requeued flit 25749
Requeued flit 11743
Requeued flit 17342
Requeued flit 12810
Requeued flit 18079
Requeued flit 19611
Requeued flit 20765
Requeued flit 16663
Requeued flit 13581
Requeued flit 22800
Requeued flit 14222
Requeued flit 15226
Requeued flit 21420
Requeued flit 12555
Requeued flit 16291
Requeued flit 23922
Requeued flit 12656
Requeued flit 10522
Requeued flit 21304
Requeued flit 26374
Requeued flit 9709
Requeued flit 25655
Requeued flit 22609
Requeued flit 16862
Requeued flit 16236
Requeued flit 14213
Requeued flit 21734
Requeued flit 20452
Requeued flit 26280
Requeued flit 16180
Requeued flit 13576
Requeued flit 19909
Requeued flit 22247
Requeued flit 15203
Requeued flit 11813
Requeued flit 19842
Requeued flit 14208
Requeued flit 17501
Requeued flit 18090
Requeued flit 15580
Requeued flit 25560
Requeued flit 26194
Requeued flit 15384
Requeued flit 20014
Requeued flit 14174
Requeued flit 25932
Requeued flit 22944
Requeued flit 26233
Requeued flit 21229
Requeued flit 20363
Requeued flit 21118
Requeued flit 26603
Requeued flit 13054
Requeued flit 25806
Requeued flit 12599
Requeued flit 26651
Requeued flit 21701
Requeued flit 10839
Requeued flit 16333
Requeued flit 23210
Requeued flit 10031
Requeued flit 15181
Requeued flit 26727
Requeued flit 26738
Requeued flit 16758
Requeued flit 24813
Requeued flit 16793
Requeued flit 12342
Requeued flit 16900
Requeued flit 26699
Requeued flit 23182
Requeued flit 26759
Requeued flit 17165
Requeued flit 22440
Requeued flit 12781
Requeued flit 16810
Requeued flit 14220
Requeued flit 24201
Requeued flit 14147
Requeued flit 15019
Requeued flit 15445
Requeued flit 11630
Requeued flit 25803
Requeued flit 13618
Requeued flit 26892
Requeued flit 22503
Requeued flit 17207
Requeued flit 14962
Requeued flit 11674
Requeued flit 12534
Requeued flit 20176
Requeued flit 8455
Requeued flit 22557
Requeued flit 11182
Requeued flit 16129
Requeued flit 13232
Requeued flit 14308
Requeued flit 26711
Requeued flit 17379
Requeued flit 20814
Requeued flit 11987
Requeued flit 17149
Requeued flit 21844
Requeued flit 16444
Requeued flit 13730
Requeued flit 13042
Requeued flit 27109
Requeued flit 27125
Requeued flit 21591
Requeued flit 12579
Requeued flit 27096
Requeued flit 19025
Requeued flit 18740
Requeued flit 20317
Requeued flit 11143
Requeued flit 15113
Requeued flit 22035
Requeued flit 11166
Requeued flit 25723
Requeued flit 24924
Requeued flit 23284
Requeued flit 14534
Requeued flit 27102
Requeued flit 17304
Requeued flit 23691
Requeued flit 22874
Requeued flit 27081
Requeued flit 27229
Requeued flit 16977
Requeued flit 18288
Requeued flit 14049
Requeued flit 23581
Requeued flit 19307
Requeued flit 20860
Requeued flit 27120
Requeued flit 25100
Requeued flit 20410
Requeued flit 21784
Requeued flit 19222
Requeued flit 12279
Requeued flit 13389
Requeued flit 15917
Requeued flit 19577
Requeued flit 8983
Requeued flit 17132
Requeued flit 17279
Requeued flit 26746
Requeued flit 12817
Requeued flit 21151
Requeued flit 20431
Requeued flit 16416
Requeued flit 20302
Requeued flit 18122
Requeued flit 21963
Requeued flit 17265
Requeued flit 11859
Requeued flit 14725
Requeued flit 20862
Requeued flit 12877
Requeued flit 22634
Requeued flit 12194
Requeued flit 12470
Requeued flit 27591
Requeued flit 24069
Requeued flit 21805
Requeued flit 19357
Requeued flit 26730
Requeued flit 23844
Requeued flit 13540
Requeued flit 23854
Requeued flit 15499
Requeued flit 21867
Requeued flit 13293
Requeued flit 20623
Requeued flit 27470
Requeued flit 27667
Requeued flit 13299
Requeued flit 17848
Requeued flit 24546
Requeued flit 27159
Requeued flit 24137
Requeued flit 20147
Requeued flit 14599
Requeued flit 14951
Requeued flit 27664
Requeued flit 14512
Requeued flit 14927
Requeued flit 23929
Requeued flit 27827
Requeued flit 22754
Requeued flit 23206
Requeued flit 15964
Requeued flit 14812
Requeued flit 27874
Requeued flit 14539
Requeued flit 12825
Requeued flit 12998
Requeued flit 14054
Requeued flit 25963
Requeued flit 23426
Requeued flit 12569
Requeued flit 20537
Requeued flit 12930
Requeued flit 18287
Requeued flit 17080
Requeued flit 17081
Requeued flit 20523
Requeued flit 27958
Requeued flit 24275
Requeued flit 25685
Requeued flit 14758
Requeued flit 21639
Requeued flit 19558
Requeued flit 19463
Requeued flit 23983
Requeued flit 27918
Requeued flit 14077
Requeued flit 10384
Requeued flit 18970
Requeued flit 16002
Requeued flit 16048
Requeued flit 23220
Requeued flit 22160
Requeued flit 23523
Requeued flit 17017
Requeued flit 20119
Requeued flit 17661
Requeued flit 18616
Requeued flit 13909
Requeued flit 24548
Requeued flit 21161
Requeued flit 18361
Requeued flit 11550
Requeued flit 26425
Requeued flit 12808
Requeued flit 25949
Requeued flit 15948
Requeued flit 22725
Requeued flit 26848
Requeued flit 18367
Requeued flit 12040
Requeued flit 13373
Requeued flit 17065
Requeued flit 12870
Requeued flit 17177
Requeued flit 15427
Requeued flit 16903
Requeued flit 24109
Requeued flit 13926
Requeued flit 26405
Requeued flit 13117
Requeued flit 17793
Requeued flit 23870
Requeued flit 22846
Requeued flit 15085
Requeued flit 18745
Requeued flit 28317
Requeued flit 28365
Requeued flit 28121
Requeued flit 25405
Requeued flit 28145
Requeued flit 14861
Requeued flit 18203
Requeued flit 23874
Requeued flit 15964
Requeued flit 24140
Requeued flit 13030
Requeued flit 13468
Requeued flit 28265
Requeued flit 21264
Requeued flit 28477
Requeued flit 15588
Requeued flit 20252
Requeued flit 13883
Requeued flit 14791
Requeued flit 11780
Requeued flit 28514
Requeued flit 18706
Requeued flit 27101
Requeued flit 24053
Requeued flit 11459
Requeued flit 25849
Requeued flit 27590
Requeued flit 22711
Requeued flit 24893
Requeued flit 20448
Requeued flit 14021
Requeued flit 14273
Requeued flit 19348
Requeued flit 16462
Requeued flit 14171
Requeued flit 17602
Requeued flit 11281
Requeued flit 23876
Requeued flit 16876
Requeued flit 18288
Requeued flit 14125
Requeued flit 18518
Requeued flit 12800
Requeued flit 13896
Requeued flit 27099
Requeued flit 23817
Requeued flit 10683
Requeued flit 14785
Requeued flit 21334
Requeued flit 24079
Requeued flit 23061
Requeued flit 16509
Requeued flit 11830
Requeued flit 12822
Requeued flit 24232
Requeued flit 28186
Requeued flit 15017
Requeued flit 18850
Requeued flit 14442
Requeued flit 16595
Requeued flit 23208
Requeued flit 27732
Requeued flit 26596
Requeued flit 11855
Requeued flit 27244
Requeued flit 28876
Requeued flit 28786
Requeued flit 28789
Requeued flit 15234
Requeued flit 18989
Requeued flit 28812
Requeued flit 17986
Requeued flit 13212
Requeued flit 28913
Requeued flit 28295
Requeued flit 28441
Requeued flit 15502
Requeued flit 19886
Requeued flit 28049
Requeued flit 10837
Requeued flit 16058
Requeued flit 26547
Requeued flit 28539
Requeued flit 18688
Requeued flit 22306
Requeued flit 17795
Requeued flit 28670
Requeued flit 16343
Requeued flit 17521
Requeued flit 12676
Requeued flit 14096
Requeued flit 18324
Requeued flit 24051
Requeued flit 21689
Requeued flit 29050
Requeued flit 22613
Requeued flit 18452
Requeued flit 23052
Requeued flit 22744
Requeued flit 18221
Requeued flit 21198
Requeued flit 14182
Requeued flit 12812
Requeued flit 20399
Requeued flit 21853
Requeued flit 23727
Requeued flit 17782
Requeued flit 29143
Requeued flit 20346
Requeued flit 17972
Requeued flit 25339
Requeued flit 29222
Requeued flit 26554
Requeued flit 28817
Requeued flit 24128
Requeued flit 17328
Requeued flit 19133
Requeued flit 23171
Requeued flit 24524
Requeued flit 22019
Requeued flit 25547
Requeued flit 21883
Requeued flit 24782
Requeued flit 19986
Requeued flit 25608
Requeued flit 19621
Requeued flit 29301
Requeued flit 18807
Requeued flit 25622
Requeued flit 15332
Requeued flit 18499
Requeued flit 21596
Requeued flit 12139
Requeued flit 18285
Requeued flit 13020
Requeued flit 23490
Requeued flit 17453
Requeued flit 27549
Requeued flit 13727
Requeued flit 23722
Requeued flit 20243
Requeued flit 14020
Requeued flit 18342
Requeued flit 16907
Requeued flit 24915
Requeued flit 23287
Requeued flit 14150
Requeued flit 12801
Requeued flit 22597
Requeued flit 29384
Requeued flit 27418
Requeued flit 28493
Requeued flit 23212
Requeued flit 18171
Requeued flit 23893
Requeued flit 26071
Requeued flit 6994
Requeued flit 26908
Requeued flit 14491
Requeued flit 24677
Requeued flit 17602
Requeued flit 28686
Requeued flit 26240
Requeued flit 20336
Requeued flit 18200
Requeued flit 19117
Requeued flit 28596
Requeued flit 17179
Requeued flit 18952
Requeued flit 18410
Requeued flit 15728
Requeued flit 16434
Requeued flit 18272
Requeued flit 22825
Requeued flit 25612
Requeued flit 24945
Requeued flit 17447
Requeued flit 12427
Requeued flit 16576
Requeued flit 28186
Requeued flit 24031
Requeued flit 29711
Requeued flit 25670
Requeued flit 21174
Requeued flit 14581
Requeued flit 21866
Requeued flit 23589
Requeued flit 11734
Requeued flit 29714
Requeued flit 15360
Requeued flit 14725
Requeued flit 28288
Requeued flit 19479
Requeued flit 29672
Requeued flit 18419
Requeued flit 27640
Requeued flit 27003
Requeued flit 13073
Requeued flit 20337
Requeued flit 14855
Requeued flit 23081
Requeued flit 22788
Requeued flit 15580
Requeued flit 15072
Requeued flit 23745
Requeued flit 26844
Requeued flit 11299
Requeued flit 23490
Requeued flit 23153
Requeued flit 30063
Requeued flit 25988
Requeued flit 15320
Requeued flit 15027
Requeued flit 17393
Requeued flit 20886
Requeued flit 13274
Requeued flit 15645
Requeued flit 27988
Requeued flit 15683
Requeued flit 26523
Requeued flit 17179
Requeued flit 26557
Requeued flit 19239
Requeued flit 26731
Requeued flit 22608
Requeued flit 19153
Requeued flit 23457
Requeued flit 20058
Requeued flit 14996
Requeued flit 25457
Requeued flit 26038
Requeued flit 16352
Requeued flit 21994
Requeued flit 25019
Requeued flit 20717
Requeued flit 30184
Requeued flit 29996
Requeued flit 29959
Requeued flit 17104
Requeued flit 23919
Requeued flit 23582
Requeued flit 30219
Requeued flit 25756
Requeued flit 17532
Requeued flit 15807
Requeued flit 23893
Requeued flit 14855
Requeued flit 17494
Requeued flit 29691
Requeued flit 22976
Requeued flit 13079
Requeued flit 21821
Requeued flit 30344
Requeued flit 30257
Requeued flit 25987
Requeued flit 23346
Requeued flit 18785
Requeued flit 26301
Requeued flit 19519
Requeued flit 14515
Requeued flit 30258
Requeued flit 21159
Requeued flit 17422
Requeued flit 28446
Requeued flit 29864
Requeued flit 15048
Requeued flit 24048
Requeued flit 30446
Requeued flit 25962
Requeued flit 23926
Requeued flit 15954
Requeued flit 26328
Requeued flit 26192
Requeued flit 12841
Requeued flit 29993
Requeued flit 15743
Requeued flit 26162
Requeued flit 19999
Requeued flit 29201
Requeued flit 26716
Requeued flit 15635
Requeued flit 26908
Requeued flit 20296
Requeued flit 26498
Requeued flit 16161
Requeued flit 28900
Requeued flit 25651
Requeued flit 14962
Requeued flit 18862
Requeued flit 23064
Requeued flit 30482
Requeued flit 19856
Requeued flit 27091
Requeued flit 19812
Requeued flit 17718
Requeued flit 23072
Requeued flit 14430
Requeued flit 29298
Requeued flit 25277
Requeued flit 19320
Requeued flit 11853
Requeued flit 29104
Requeued flit 12961
Requeued flit 23281
Requeued flit 30720
Requeued flit 23138
Requeued flit 24382
Requeued flit 23228
Requeued flit 30841
Requeued flit 11599
Requeued flit 20253
Requeued flit 26847
Requeued flit 30846
Requeued flit 25117
Requeued flit 17336
Requeued flit 25043
Requeued flit 16710
Requeued flit 24092
Requeued flit 27346
Requeued flit 12966
Requeued flit 25499
Requeued flit 23575
Requeued flit 21733
Requeued flit 19726
Requeued flit 26624
Requeued flit 18760
Requeued flit 21032
Requeued flit 26645
Requeued flit 15391
Requeued flit 18709
Requeued flit 18150
Requeued flit 25061
Requeued flit 31080
Requeued flit 22667
Requeued flit 28649
Requeued flit 20888
Requeued flit 27056
Requeued flit 25584
Requeued flit 19314
Requeued flit 10151
Requeued flit 16130
Requeued flit 21402
Requeued flit 15471
Requeued flit 19455
Requeued flit 21192
Requeued flit 26857
Requeued flit 18348
Requeued flit 20203
Requeued flit 31125
Requeued flit 26852
Requeued flit 20980
Requeued flit 28314
Requeued flit 26117
Requeued flit 27348
Requeued flit 13366
Requeued flit 24836
Requeued flit 31145
Requeued flit 20569
Requeued flit 22266
Requeued flit 21540
Requeued flit 15050
Requeued flit 31349
Requeued flit 20638
Requeued flit 21446
Requeued flit 25700
Requeued flit 21238
Requeued flit 28736
Requeued flit 30750
Requeued flit 28852
Requeued flit 30149
Requeued flit 20933
Requeued flit 20490
Requeued flit 19999
Requeued flit 15144
Requeued flit 16661
Requeued flit 23078
Requeued flit 22780
Requeued flit 26854
Requeued flit 25137
Requeued flit 18728
Requeued flit 24566
Requeued flit 30547
Requeued flit 15099
Requeued flit 19812
Requeued flit 10442
Requeued flit 31408
Requeued flit 26527
Requeued flit 23017
Requeued flit 31423
Requeued flit 20716
Requeued flit 17190
Requeued flit 19654
Requeued flit 17979
Requeued flit 15821
Requeued flit 31499
Requeued flit 26319
Requeued flit 23711
Requeued flit 17822
Requeued flit 19957
Requeued flit 26216
Requeued flit 19916
Requeued flit 30210
Requeued flit 9868
Requeued flit 31610
Requeued flit 21571
Requeued flit 27898
Requeued flit 31518
Requeued flit 21736
Requeued flit 31248
Requeued flit 19096
Requeued flit 25784
Requeued flit 21437
Requeued flit 31585
Requeued flit 26982
Requeued flit 24523
Requeued flit 21525
Requeued flit 23159
Requeued flit 31537
Requeued flit 20497
Requeued flit 24591
Requeued flit 24954
Requeued flit 21607
Requeued flit 26767
Requeued flit 25657
Requeued flit 25189
Requeued flit 18905
Requeued flit 17743
Requeued flit 22726
Requeued flit 18399
Requeued flit 22275
Requeued flit 16902
Requeued flit 24394
Requeued flit 15311
Requeued flit 29336
Requeued flit 10101
Requeued flit 21615
Requeued flit 16064
Requeued flit 27421
Requeued flit 15299
Requeued flit 28826
Requeued flit 14554
Requeued flit 31661
Requeued flit 27859
Requeued flit 22506
Requeued flit 31484
Requeued flit 17885
Requeued flit 20070
Requeued flit 22144
Requeued flit 24657
Requeued flit 27610
Requeued flit 16470
Requeued flit 26601
Requeued flit 16347
Requeued flit 26800
Requeued flit 25050
Requeued flit 19061
Requeued flit 18451
Requeued flit 20162
Requeued flit 29365
Requeued flit 30897
Requeued flit 15365
Requeued flit 20036
Requeued flit 24156
Requeued flit 25091
Requeued flit 25239
Requeued flit 25241
Requeued flit 31286
Requeued flit 31252
Requeued flit 20444
Requeued flit 23443
Requeued flit 32019
Requeued flit 31040
Requeued flit 31072
Requeued flit 25076
Requeued flit 16691
Requeued flit 19796
Requeued flit 18878
Requeued flit 30471
Requeued flit 22359
Requeued flit 31677
Requeued flit 32104
Requeued flit 23489
Requeued flit 24059
Requeued flit 22019
Requeued flit 21721
Requeued flit 31908
Requeued flit 15398
Requeued flit 30854
Requeued flit 26654
Requeued flit 32102
Requeued flit 24353
Requeued flit 26749
Requeued flit 32253
Requeued flit 22041
Requeued flit 32105
Requeued flit 26950
Requeued flit 17522
Requeued flit 22079
Requeued flit 24941
Requeued flit 21302
Requeued flit 20921
Requeued flit 29471
Requeued flit 15287
Requeued flit 24178
Requeued flit 27962
Requeued flit 16327
Requeued flit 15532
Requeued flit 30796
Requeued flit 28648
Requeued flit 32342
Requeued flit 19992
Requeued flit 23705
Requeued flit 16105
Requeued flit 18091
Requeued flit 24745
Requeued flit 12824
Requeued flit 23756
Requeued flit 31669
Requeued flit 25059
Requeued flit 18958
Requeued flit 28290
Requeued flit 24317
Requeued flit 15181
Requeued flit 27922
Requeued flit 30559
Requeued flit 31703
Requeued flit 26978
Requeued flit 16710
Requeued flit 28869
Requeued flit 16998
Requeued flit 29450
Requeued flit 18184
Requeued flit 13474
Requeued flit 26088
Requeued flit 30749
Requeued flit 15876
Requeued flit 16667
Requeued flit 18654
Requeued flit 25983
Requeued flit 17417
Requeued flit 25293
Requeued flit 21629
Requeued flit 28168
Requeued flit 17849
Requeued flit 21919
Requeued flit 32651
Requeued flit 22792
Requeued flit 24805
Requeued flit 12428
Requeued flit 32816
Requeued flit 26355
Requeued flit 28989
Requeued flit 16832
Requeued flit 8627
Requeued flit 25131
Requeued flit 28163
Requeued flit 31799
Requeued flit 17522
Requeued flit 27415
Requeued flit 31972
Requeued flit 28605
Requeued flit 21644
Requeued flit 20034
Requeued flit 32895
Requeued flit 18883
Requeued flit 21673
Requeued flit 31863
Requeued flit 18602
Requeued flit 32403
Requeued flit 27051
Requeued flit 8983
Requeued flit 20814
Requeued flit 16476
Requeued flit 27430
Requeued flit 32316
Requeued flit 27553
Requeued flit 25950
Requeued flit 26714
Requeued flit 31369
Requeued flit 22151
Requeued flit 32792
Requeued flit 25922
Requeued flit 20567
Requeued flit 17977
Requeued flit 20016
Requeued flit 23747
Requeued flit 32800
Requeued flit 19186
Requeued flit 33206
Requeued flit 18900
Requeued flit 21231
Requeued flit 28030
Requeued flit 24390
[...]
Requeued flit 226243
Requeued flit 234120
Requeued flit 283854
Requeued flit 357029
Requeued flit 364883
Requeued flit 365780
Requeued flit 298324
Requeued flit 304984
Requeued flit 310910
Requeued flit 307066
Requeued flit 317449
Requeued flit 340653
Requeued flit 292582
Requeued flit 334009
Requeued flit 356242
Requeued flit 246203
Requeued flit 235295
Requeued flit 333138
Requeued flit 353617
Requeued flit 204772
Requeued flit 315462
Requeued flit 197380
Requeued flit 191415
Requeued flit 244430
Requeued flit 329824
Requeued flit 308546
Requeued flit 193383
Requeued flit 380579
Requeued flit 364999
Requeued flit 315035
Requeued flit 279685
Requeued flit 298682
Requeued flit 199968
Requeued flit 353929
Requeued flit 367132
Requeued flit 354278
Requeued flit 355677
Requeued flit 338285
Requeued flit 302803
Requeued flit 369129
Requeued flit 203071
Requeued flit 188898
Requeued flit 246492
Requeued flit 191623
Requeued flit 334533
Requeued flit 365220
Requeued flit 339516
Requeued flit 201127
Requeued flit 357283
Requeued flit 348296
Requeued flit 329148
Requeued flit 235495
Requeued flit 352424
Requeued flit 353524
Requeued flit 328347
Requeued flit 331674
Requeued flit 354803
Requeued flit 207030
Requeued flit 366005
Requeued flit 331163
Requeued flit 350251
Requeued flit 364275
Requeued flit 196176
Requeued flit 266964
Requeued flit 349983
Requeued flit 289247
Requeued flit 332837
Requeued flit 222440
Requeued flit 359362
Requeued flit 293730
Requeued flit 236712
Requeued flit 368402
Requeued flit 354266
Requeued flit 372498
Requeued flit 356228
Requeued flit 356773
Requeued flit 295817
Requeued flit 198788
Requeued flit 203334
Requeued flit 365130
Requeued flit 354190
Requeued flit 369301
Requeued flit 347177
Requeued flit 253615
Requeued flit 366318
Requeued flit 325383
Requeued flit 328806
Requeued flit 235495
Requeued flit 304501
Requeued flit 352534
Requeued flit 207005
Requeued flit 337871
Requeued flit 337060
Requeued flit 296016
Requeued flit 202505
Requeued flit 351461
Requeued flit 205270
Requeued flit 364505
Requeued flit 341698
Requeued flit 357209
Requeued flit 366452
Requeued flit 286095
Requeued flit 307183
Requeued flit 332786
Requeued flit 331091
Requeued flit 368713
Requeued flit 329656
Requeued flit 316477
Requeued flit 349380
Requeued flit 365430
Requeued flit 273634
Requeued flit 352122
Requeued flit 348330
Requeued flit 321667
Requeued flit 208838
Requeued flit 353083
Requeued flit 314872
Requeued flit 355154
Requeued flit 346590
Requeued flit 369716
Requeued flit 307063
Requeued flit 337493
Requeued flit 215910
Requeued flit 345250
Requeued flit 257351
Requeued flit 245130
Requeued flit 354439
Requeued flit 350395
Requeued flit 300377
Requeued flit 251208
Requeued flit 342581
Requeued flit 323301
Requeued flit 204687
Requeued flit 259281
Requeued flit 232261
Requeued flit 327110
Requeued flit 187586
Requeued flit 335633
Requeued flit 311130
Requeued flit 251695
Requeued flit 250031
Requeued flit 305465
Requeued flit 309094
Requeued flit 216098
Requeued flit 380893
Requeued flit 351112
Requeued flit 332803
Requeued flit 353921
Requeued flit 309177
Requeued flit 366719
Requeued flit 239190
Requeued flit 277162
Requeued flit 355163
Requeued flit 258915
Requeued flit 350118
Requeued flit 296180
Requeued flit 355353
Requeued flit 330983
Requeued flit 370323
Requeued flit 305392
Requeued flit 241403
Requeued flit 240051
Requeued flit 352791
Requeued flit 206126
Requeued flit 365769
Requeued flit 331851
Requeued flit 201865
Requeued flit 317742
Requeued flit 219167
Requeued flit 372562
Requeued flit 352971
Requeued flit 233489
Requeued flit 351974
Requeued flit 212901
Requeued flit 203890
Requeued flit 199106
Requeued flit 292266
Requeued flit 345542
Requeued flit 332206
Requeued flit 372578
Requeued flit 366889
Requeued flit 297843
Requeued flit 254444
Requeued flit 238782
Requeued flit 353904
Requeued flit 365722
Requeued flit 197321
Requeued flit 300350
Requeued flit 372078
Requeued flit 337024
Requeued flit 381465
Requeued flit 292184
Requeued flit 355016
Requeued flit 320282
Requeued flit 315692
Requeued flit 368150
Requeued flit 370785
Requeued flit 351910
Requeued flit 322770
Requeued flit 287509
Requeued flit 212596
Requeued flit 259615
Requeued flit 372444
Requeued flit 355371
Requeued flit 290664
Requeued flit 372353
Requeued flit 260647
Requeued flit 294047
Requeued flit 291665
Requeued flit 353748
Requeued flit 316215
Requeued flit 372241
Requeued flit 294510
Requeued flit 202323
Requeued flit 314768
Requeued flit 309723
Requeued flit 337484
Requeued flit 355023
Requeued flit 235257
Requeued flit 341703
Requeued flit 258907
Requeued flit 366255
Requeued flit 353427
Requeued flit 374488
Requeued flit 228903
Requeued flit 200821
Requeued flit 330983
Requeued flit 353633
Requeued flit 210171
Requeued flit 357152
Requeued flit 329167
Requeued flit 374619
Requeued flit 195575
Requeued flit 289117
Requeued flit 366260
Requeued flit 294327
Requeued flit 330305
Requeued flit 365935
Requeued flit 351458
Requeued flit 352506
Requeued flit 366184
Requeued flit 253115
Requeued flit 357141
Requeued flit 245965
Requeued flit 318770
Requeued flit 355080
Requeued flit 343313
Requeued flit 202707
Requeued flit 355818
Requeued flit 298848
Requeued flit 353817
Requeued flit 333283
Requeued flit 356815
Requeued flit 308842
Requeued flit 312640
Requeued flit 333400
Requeued flit 311517
Requeued flit 357692
Requeued flit 353517
Requeued flit 231718
Requeued flit 326750
Requeued flit 317897
Requeued flit 338105
Requeued flit 366376
Requeued flit 340449
Requeued flit 249070
Requeued flit 336731
Requeued flit 381837
Requeued flit 367461
Requeued flit 332562
Requeued flit 356453
Requeued flit 352775
Requeued flit 194186
Requeued flit 290789
Requeued flit 336511
Requeued flit 355619
Requeued flit 358068
Requeued flit 198022
Requeued flit 199888
Requeued flit 372115
Requeued flit 340629
Requeued flit 333068
Requeued flit 339155
Requeued flit 366895
Requeued flit 270312
Requeued flit 202013
Requeued flit 343220
Requeued flit 287252
Requeued flit 349881
Requeued flit 342309
Requeued flit 353606
Requeued flit 199435
Requeued flit 307046
Requeued flit 299024
Requeued flit 244956
Requeued flit 355085
Requeued flit 302261
Requeued flit 349727
Requeued flit 204335
Requeued flit 364429
Requeued flit 280029
Requeued flit 243839
Requeued flit 335187
Requeued flit 351144
Requeued flit 382005
Requeued flit 200890
Requeued flit 240051
Requeued flit 285956
Requeued flit 251794
Requeued flit 357570
Requeued flit 301559
Requeued flit 292475
Requeued flit 259679
Requeued flit 200542
Requeued flit 203439
Requeued flit 332808
Requeued flit 300518
Requeued flit 373451
Requeued flit 291328
Requeued flit 343759
Requeued flit 332312
Requeued flit 351510
Requeued flit 301081
Requeued flit 353484
Requeued flit 305923
Requeued flit 271076
Requeued flit 302735
Requeued flit 210485
Requeued flit 271794
Requeued flit 367997
Requeued flit 205774
Requeued flit 340059
Requeued flit 243377
Requeued flit 369231
Requeued flit 355221
Requeued flit 293399
Requeued flit 367308
Requeued flit 203742
Requeued flit 357240
Requeued flit 381805
Requeued flit 231016
Requeued flit 301660
Requeued flit 304534
Requeued flit 356681
Requeued flit 331324
Requeued flit 300418
Requeued flit 354043
Requeued flit 332693
Requeued flit 317669
Requeued flit 331499
Requeued flit 306005
Requeued flit 260537
Requeued flit 372115
Requeued flit 197277
Requeued flit 343270
Requeued flit 264488
Requeued flit 355408
Requeued flit 368038
Requeued flit 207050
Requeued flit 300518
Requeued flit 204339
Requeued flit 264093
Requeued flit 354027
Requeued flit 354763
Requeued flit 198022
Requeued flit 351804
Requeued flit 366805
Requeued flit 299914
Requeued flit 382396
Requeued flit 352986
Requeued flit 203912
Requeued flit 204888
Requeued flit 366900
Requeued flit 297542
Requeued flit 335840
Requeued flit 332142
Requeued flit 339358
Requeued flit 367017
Requeued flit 357006
Requeued flit 368138
Requeued flit 243905
Requeued flit 367780
Requeued flit 302261
Requeued flit 199597
Requeued flit 358431
Requeued flit 278734
Requeued flit 226824
Requeued flit 340860
Requeued flit 188453
Requeued flit 366984
Requeued flit 293796
Requeued flit 246778
Requeued flit 355262
Requeued flit 192750
Requeued flit 366345
Requeued flit 355573
Requeued flit 367588
Requeued flit 252810
Requeued flit 370185
Requeued flit 308725
Requeued flit 382649
Requeued flit 367343
Requeued flit 367060
Requeued flit 302851
Requeued flit 306342
Requeued flit 307849
Requeued flit 353688
Requeued flit 262024
Requeued flit 334161
Requeued flit 367813
Requeued flit 368648
Requeued flit 318824
Requeued flit 315861
Requeued flit 244513
Requeued flit 354887
Requeued flit 359581
Requeued flit 188953
Requeued flit 351832
Requeued flit 200906
Requeued flit 318978
Requeued flit 301188
Requeued flit 310225
Requeued flit 199933
Requeued flit 214860
Requeued flit 272555
Requeued flit 242206
Requeued flit 355886
Requeued flit 331076
Requeued flit 358426
Requeued flit 198108
Requeued flit 202940
Requeued flit 228984
Requeued flit 259873
Requeued flit 299366
Requeued flit 307743
Requeued flit 356836
Requeued flit 367651
Requeued flit 204481
Requeued flit 332560
Requeued flit 246497
Requeued flit 257476
Requeued flit 198267
Requeued flit 332908
Requeued flit 353903
Requeued flit 355721
Requeued flit 335000
Requeued flit 249018
Requeued flit 311071
Requeued flit 369754
Requeued flit 356555
Requeued flit 198160
Requeued flit 204187
Requeued flit 316496
Requeued flit 313430
Requeued flit 320651
Requeued flit 367623
Requeued flit 201304
Requeued flit 249901
Requeued flit 311490
Requeued flit 373329
Requeued flit 351993
Requeued flit 374903
Requeued flit 356695
Requeued flit 353993
Requeued flit 282978
Requeued flit 325890
Requeued flit 356350
Requeued flit 348560
Requeued flit 215807
Requeued flit 367443
Requeued flit 295449
Requeued flit 346924
Requeued flit 266497
Requeued flit 368874
Requeued flit 202495
Requeued flit 311101
Requeued flit 305666
Requeued flit 367415
Requeued flit 369657
Requeued flit 352284
Requeued flit 370921
Requeued flit 251366
Requeued flit 319611
Requeued flit 291884
Requeued flit 356304
Requeued flit 345630
Requeued flit 336636
Requeued flit 383072
Requeued flit 260511
Requeued flit 336702
Requeued flit 356872
Requeued flit 248073
Requeued flit 359070
Requeued flit 352719
Requeued flit 354762
Requeued flit 204552
Requeued flit 357132
Requeued flit 367582
Requeued flit 359388
Requeued flit 339507
Requeued flit 297698
Requeued flit 353763
Requeued flit 319647
Requeued flit 198470
Requeued flit 345020
Requeued flit 357973
Requeued flit 235945
Requeued flit 338602
Requeued flit 198337
Requeued flit 294941
Requeued flit 358000
Requeued flit 240362
Requeued flit 205061
Requeued flit 254301
Requeued flit 367562
Requeued flit 200983
Requeued flit 359625
Requeued flit 246136
Requeued flit 317343
Requeued flit 373853
Requeued flit 327505
Requeued flit 358732
Requeued flit 329581
Requeued flit 355197
Requeued flit 330135
Requeued flit 200168
Requeued flit 342696
Requeued flit 354942
Requeued flit 234629
Requeued flit 324355
Requeued flit 357869
Requeued flit 305076
Requeued flit 208121
Requeued flit 273818
Requeued flit 351773
Requeued flit 317812
Requeued flit 291182
Requeued flit 353422
Requeued flit 346521
Requeued flit 355037
Requeued flit 329157
Requeued flit 191990
Requeued flit 200618
Requeued flit 295126
Requeued flit 327752
Requeued flit 333168
Requeued flit 335071
Requeued flit 192407
Requeued flit 277539
Requeued flit 354027
Requeued flit 367978
Requeued flit 319134
Requeued flit 356254
Requeued flit 369250
Requeued flit 355626
Requeued flit 342028
Requeued flit 242235
Requeued flit 200701
Requeued flit 334843
Requeued flit 307112
Requeued flit 353412
Requeued flit 333824
Requeued flit 373700
Requeued flit 199818
Requeued flit 319103
Requeued flit 322377
Requeued flit 296400
Requeued flit 330162
Requeued flit 294521
Requeued flit 368020
Requeued flit 232405
Requeued flit 368190
Requeued flit 295606
Requeued flit 273690
Requeued flit 208717
Requeued flit 383601
Requeued flit 356487
Requeued flit 317986
Requeued flit 307783
Requeued flit 337901
Requeued flit 327677
Requeued flit 210117
Requeued flit 352462
Requeued flit 237821
Requeued flit 324329
Requeued flit 313203
Requeued flit 355781
Requeued flit 374590
Requeued flit 348248
Requeued flit 321678
Requeued flit 330071
Requeued flit 238290
Requeued flit 354719
Requeued flit 210100
Requeued flit 303066
Requeued flit 338539
Requeued flit 334424
Requeued flit 315140
Requeued flit 205224
Requeued flit 369371
Requeued flit 309476
Requeued flit 228129
Requeued flit 343713
Requeued flit 355251
Requeued flit 301741
Requeued flit 217286
Requeued flit 324370
Requeued flit 352236
Requeued flit 368759
Requeued flit 302442
Requeued flit 315069
Requeued flit 299071
Requeued flit 368234
Requeued flit 367728
Requeued flit 208094
Requeued flit 374603
Requeued flit 353383
Requeued flit 245158
Requeued flit 253337
Requeued flit 201774
Requeued flit 358892
Requeued flit 327677
Requeued flit 307282
Requeued flit 278311
Requeued flit 357143
Requeued flit 352179
Requeued flit 372601
Requeued flit 283209
Requeued flit 333798
Requeued flit 230270
Requeued flit 320487
Requeued flit 183167
Requeued flit 231585
Requeued flit 264460
Requeued flit 358217
Requeued flit 336040
Requeued flit 333311
Requeued flit 246537
Requeued flit 358546
Requeued flit 311077
Requeued flit 238386
Requeued flit 297116
Requeued flit 211621
Requeued flit 201262
Requeued flit 212001
Requeued flit 333111
Requeued flit 271651
Requeued flit 318325
Requeued flit 355649
Requeued flit 357412
Requeued flit 201547
Requeued flit 247092
Requeued flit 294297
Requeued flit 288554
Requeued flit 353383
Requeued flit 246785
Requeued flit 249658
Requeued flit 317782
Requeued flit 265816
Requeued flit 198978
Requeued flit 318683
Requeued flit 270776
Requeued flit 304139
Requeued flit 298909
Requeued flit 360247
Requeued flit 303579
Requeued flit 331427
Requeued flit 333396
Requeued flit 299344
Requeued flit 232412
Requeued flit 372871
Requeued flit 292819
Requeued flit 331146
Requeued flit 194450
Requeued flit 194659
Requeued flit 372334
Requeued flit 258967
Requeued flit 343380
Requeued flit 319792
Requeued flit 358579
Requeued flit 369776
Requeued flit 202895
Requeued flit 223048
Requeued flit 274440
Requeued flit 354897
Requeued flit 353591
Requeued flit 369497
Requeued flit 200367
Requeued flit 281072
Requeued flit 289070
Requeued flit 306935
Requeued flit 307130
Requeued flit 216524
Requeued flit 330698
Requeued flit 355251
Requeued flit 345283
Requeued flit 317094
Requeued flit 296387
Requeued flit 280477
Requeued flit 342143
Requeued flit 372574
Requeued flit 354357
Requeued flit 246785
Requeued flit 221806
Requeued flit 312872
Requeued flit 202627
Requeued flit 368566
Requeued flit 318839
Requeued flit 358930
Requeued flit 272675
Requeued flit 356373
Requeued flit 358863
Requeued flit 364671
Requeued flit 210081
Requeued flit 201262
Requeued flit 248520
Requeued flit 341496
Requeued flit 356532
Requeued flit 372980
Requeued flit 197396
Requeued flit 234250
Requeued flit 357453
Requeued flit 357078
Requeued flit 354469
Requeued flit 254211
Requeued flit 354537
Requeued flit 332197
Requeued flit 296174
Requeued flit 186533
Requeued flit 198782
Requeued flit 309382
Requeued flit 205973
Requeued flit 307278
Requeued flit 333019
Requeued flit 259868
Requeued flit 308223
Requeued flit 260522
Requeued flit 357385
Requeued flit 202575
Requeued flit 262813
Requeued flit 321770
Requeued flit 372085
Requeued flit 229812
Requeued flit 358639
Requeued flit 304323
Requeued flit 296572
Requeued flit 214693
Requeued flit 351967
Requeued flit 290199
Requeued flit 245882
Requeued flit 328361
Requeued flit 309935
Requeued flit 344765
Requeued flit 347145
Requeued flit 357020
Requeued flit 370115
Requeued flit 369037
Requeued flit 333380
Requeued flit 371892
Requeued flit 250635
Requeued flit 295245
Requeued flit 309064
Requeued flit 319018
Requeued flit 354182
Requeued flit 357626
Requeued flit 223884
Requeued flit 248836
Requeued flit 357231
Requeued flit 297335
Requeued flit 349014
Requeued flit 384120
Requeued flit 302089
Requeued flit 307033
Requeued flit 339938
Requeued flit 370175
Requeued flit 368878
Requeued flit 253597
Requeued flit 309888
Requeued flit 259060
Requeued flit 319432
Requeued flit 357437
Requeued flit 355510
Requeued flit 346449
Requeued flit 343602
Requeued flit 372157
Requeued flit 369219
Requeued flit 343722
Requeued flit 358582
Requeued flit 344377
Requeued flit 243882
Requeued flit 373832
Requeued flit 272483
Requeued flit 273321
Requeued flit 332188
Requeued flit 258795
Requeued flit 204903
Requeued flit 309935
Requeued flit 356796
Requeued flit 356960
Requeued flit 263580
Requeued flit 357147
Requeued flit 232679
Requeued flit 331732
Requeued flit 338740
Requeued flit 261687
Requeued flit 203125
Requeued flit 372455
Requeued flit 290118
Requeued flit 330629
Requeued flit 370490
Requeued flit 321459
Requeued flit 369336
Requeued flit 375473
Requeued flit 359181
Requeued flit 332262
Requeued flit 360065
Requeued flit 332515
Requeued flit 361484
Requeued flit 373525
Requeued flit 200246
Requeued flit 356458
Requeued flit 203386
Requeued flit 260019
Requeued flit 333636
Requeued flit 366213
Requeued flit 202998
Requeued flit 309129
Requeued flit 358227
Requeued flit 374800
Requeued flit 343368
Requeued flit 250635
Requeued flit 309033
Requeued flit 346690
Requeued flit 318670
Requeued flit 237529
Requeued flit 337654
Requeued flit 288729
Requeued flit 307940
Requeued flit 321523
Requeued flit 357971
Requeued flit 331180
Requeued flit 356863
Requeued flit 342538
Requeued flit 336115
Requeued flit 304183
Requeued flit 203857
Requeued flit 339523
Requeued flit 203684
Requeued flit 207825
Requeued flit 341934
Requeued flit 352339
Requeued flit 369625
Requeued flit 321765
Requeued flit 273763
Requeued flit 357228
Requeued flit 241496
Requeued flit 250303
Requeued flit 369004
Requeued flit 310236
Requeued flit 312138
Requeued flit 331302
Requeued flit 360227
Requeued flit 310478
Requeued flit 315392
Requeued flit 339619
Requeued flit 369746
Requeued flit 320510
Requeued flit 340458
Requeued flit 267494
Requeued flit 266581
Requeued flit 333808
Requeued flit 241549
Requeued flit 361712
Requeued flit 201666
Requeued flit 248410
Requeued flit 345604
Requeued flit 337817
Requeued flit 356622
Requeued flit 309699
Requeued flit 357036
Requeued flit 373028
Requeued flit 332959
Requeued flit 200959
Requeued flit 235075
Requeued flit 192061
Requeued flit 335467
Requeued flit 341740
Requeued flit 346969
Requeued flit 337558
Requeued flit 329751
Requeued flit 353563
Requeued flit 253342
Requeued flit 369734
Requeued flit 264272
Requeued flit 226656
Requeued flit 303222
Requeued flit 311672
Requeued flit 321456
Requeued flit 358727
Requeued flit 309070
Requeued flit 361181
Requeued flit 328092
Requeued flit 369924
Class 0:
Packet latency average = 1359.94
	minimum = 5
	maximum = 6277
Network latency average = 1288.53
	minimum = 5
	maximum = 6277
Slowest packet = 175958
Flit latency average = 1288.53
	minimum = 5
	maximum = 6277
Slowest flit = 175958
Fragmentation average = 0
	minimum = 0
	maximum = 0
Injected packet rate average = 0.602602
	minimum = 0.4529 (at node 25)
	maximum = 0.7583 (at node 28)
Accepted packet rate average = 0.490477
	minimum = 0.4735 (at node 21)
	maximum = 0.5058 (at node 56)
Injected flit rate average = 0.602602
	minimum = 0.4529 (at node 25)
	maximum = 0.7583 (at node 28)
Accepted flit rate average= 0.490477
	minimum = 0.4735 (at node 21)
	maximum = 0.5058 (at node 56)
Injected packet length average = 1
Accepted packet length average = 1
Total in-flight flits = 71784 (0 measured)
latency change    = 1
throughput change = 1
Average latency for class 0 exceeded 500 cycles. Aborting simulation.
Too many sample periods needed to converge
Simulation unstable, ending ...
Total run time 98.7084
