BEGIN Configuration File: examples/ecc_mesh88_config_0_0.300_link_3
// $Id$

// Copyright (c) 2007-2015, Trustees of The Leland Stanford Junior University
// All rights reserved.
//
// Redistribution and use in source and binary forms, with or without
// modification, are permitted provided that the following conditions are met:
//
// Redistributions of source code must retain the above copyright notice, this
// list of conditions and the following disclaimer.
// Redistributions in binary form must reproduce the above copyright notice,
// this list of conditions and the following disclaimer in the documentation
// and/or other materials provided with the distribution.
//
// THIS SOFTWARE IS PROVIDED BY THE COPYRIGHT HOLDERS AND CONTRIBUTORS "AS IS"
// AND ANY EXPRESS OR IMPLIED WARRANTIES, INCLUDING, BUT NOT LIMITED TO, THE
// IMPLIED WARRANTIES OF MERCHANTABILITY AND FITNESS FOR A PARTICULAR PURPOSE
// ARE DISCLAIMED. IN NO EVENT SHALL THE COPYRIGHT OWNER OR CONTRIBUTORS BE
// LIABLE FOR ANY DIRECT, INDIRECT, INCIDENTAL, SPECIAL, EXEMPLARY, OR
// CONSEQUENTIAL DAMAGES (INCLUDING, BUT NOT LIMITED TO, PROCUREMENT OF
// SUBSTITUTE GOODS OR SERVICES; LOSS OF USE, DATA, OR PROFITS; OR BUSINESS
// INTERRUPTION) HOWEVER CAUSED AND ON ANY THEORY OF LIABILITY, WHETHER IN
// CONTRACT, STRICT LIABILITY, OR TORT (INCLUDING NEGLIGENCE OR OTHERWISE)
// ARISING IN ANY WAY OUT OF THE USE OF THIS SOFTWARE, EVEN IF ADVISED OF THE
// POSSIBILITY OF SUCH DAMAGE.

// Dragonfly
//




vc_buf_size = 256;


wait_for_tail_credit = 0;

//
// Router architecture
//
vc_allocator = separable_input_first; 
sw_allocator = separable_input_first;
alloc_iters  = 1;

credit_delay   = 2;
routing_delay  = 0;
vc_alloc_delay = 1;
sw_alloc_delay = 1;
st_final_delay = 1;

input_speedup     = 1;
output_speedup    = 1;
internal_speedup  = 2.0;


warmup_periods = 3;
sim_count          = 1;

sample_period  = 10000;  


routing_function = dor;
num_vcs     = 2;

priority = none;
traffic       = uniform; 

injection_rate = 0.3;
packet_size = 1;
injection_rate_uses_flits=1;

topology = mesh;

k  = 8;
n  = 2;

fer = 3;
ecc = link;
correctable = 0;

watch_out=-;
watch_file = watch.txt;

ecc = link;

stats_out = examples/ecc_mesh88_config_0_0.300_link_3.m;

END Configuration File: examples/ecc_mesh88_config_0_0.300_link_3
Requeued flit 35
Requeued flit 424
Requeued flit 356
Requeued flit 582
Requeued flit 604
Requeued flit 789
Requeued flit 630
Requeued flit 1015
Requeued flit 1052
Requeued flit 1126
Requeued flit 1316
Requeued flit 1266
Requeued flit 1552
Requeued flit 2048
Requeued flit 2148
Requeued flit 1984
Requeued flit 2669
Requeued flit 2558
Requeued flit 2748
Requeued flit 3595
Requeued flit 3547
Requeued flit 3488
Requeued flit 3743
Requeued flit 3805
Requeued flit 3542
Requeued flit 4280
Requeued flit 4663
Requeued flit 4910
Requeued flit 4990
Requeued flit 4899
Requeued flit 4988
Requeued flit 5502
Requeued flit 5961
Requeued flit 5778
Requeued flit 6138
Requeued flit 7177
Requeued flit 7337
Requeued flit 7234
Requeued flit 7287
Requeued flit 7406
Requeued flit 7528
Requeued flit 7604
Requeued flit 8001
Requeued flit 8227
Requeued flit 8344
Requeued flit 8359
Requeued flit 8941
Requeued flit 9077
Requeued flit 9199
Requeued flit 9554
Requeued flit 9876
Requeued flit 9621
Requeued flit 10088
Requeued flit 10084
Requeued flit 10022
Requeued flit 10241
Requeued flit 10624
Requeued flit 10635
Requeued flit 11227
Requeued flit 11150
Requeued flit 11305
Requeued flit 11088
Requeued flit 11518
Requeued flit 11716
Requeued flit 11585
Requeued flit 12014
Requeued flit 12486
Requeued flit 12547
Requeued flit 12380
Requeued flit 12640
Requeued flit 12779
Requeued flit 12883
Requeued flit 12810
Requeued flit 13025
Requeued flit 13095
Requeued flit 13011
Requeued flit 13311
Requeued flit 13011
Requeued flit 13176
Requeued flit 13231
Requeued flit 13686
Requeued flit 13770
Requeued flit 13902
Requeued flit 13896
Requeued flit 14226
Requeued flit 14352
Requeued flit 14049
Requeued flit 14394
Requeued flit 14369
Requeued flit 14994
Requeued flit 15213
Requeued flit 15543
Requeued flit 15722
Requeued flit 15865
Requeued flit 16386
Requeued flit 16338
Requeued flit 16546
Requeued flit 16309
Requeued flit 16644
Requeued flit 16979
Requeued flit 17411
Requeued flit 17415
Requeued flit 18440
Requeued flit 18388
Requeued flit 18346
Requeued flit 18674
Requeued flit 18576
Requeued flit 18968
Requeued flit 19109
Requeued flit 19450
Requeued flit 19488
Requeued flit 19904
Requeued flit 20473
Requeued flit 20414
Requeued flit 20606
Requeued flit 20747
Requeued flit 20495
Requeued flit 20619
Requeued flit 20808
Requeued flit 20533
Requeued flit 20834
Requeued flit 21035
Requeued flit 21178
Requeued flit 20973
Requeued flit 21415
Requeued flit 21546
Requeued flit 21920
Requeued flit 22101
Requeued flit 22230
Requeued flit 22187
Requeued flit 22532
Requeued flit 22482
Requeued flit 22593
Requeued flit 22662
Requeued flit 22878
Requeued flit 22709
Requeued flit 22898
Requeued flit 23289
Requeued flit 23217
Requeued flit 23575
Requeued flit 23706
Requeued flit 24038
Requeued flit 23995
Requeued flit 24158
Requeued flit 24293
Requeued flit 24543
Requeued flit 24410
Requeued flit 24690
Requeued flit 24533
Requeued flit 24419
Requeued flit 25056
Requeued flit 25180
Requeued flit 25391
Requeued flit 25449
Requeued flit 25813
Requeued flit 26614
Requeued flit 26942
Requeued flit 27119
Requeued flit 27358
Requeued flit 27515
Requeued flit 27620
Requeued flit 27822
Requeued flit 27787
Requeued flit 27838
Requeued flit 28026
Requeued flit 28118
Requeued flit 28168
Requeued flit 28360
Requeued flit 28329
Requeued flit 28788
Requeued flit 28570
Requeued flit 28800
Requeued flit 28836
Requeued flit 29904
Requeued flit 30072
Requeued flit 30344
Requeued flit 30204
Requeued flit 30327
Requeued flit 30560
Requeued flit 30808
Requeued flit 31976
Requeued flit 31913
Requeued flit 32065
Requeued flit 32666
Requeued flit 32693
Requeued flit 32477
Requeued flit 32885
Requeued flit 32895
Requeued flit 33113
Requeued flit 33655
Requeued flit 33903
Requeued flit 33587
Requeued flit 33829
Requeued flit 34160
Requeued flit 34215
Requeued flit 34509
Requeued flit 34727
Requeued flit 34403
Requeued flit 34409
Requeued flit 34685
Requeued flit 34864
Requeued flit 34871
Requeued flit 34816
Requeued flit 34960
Requeued flit 35167
Requeued flit 35298
Requeued flit 35633
Requeued flit 35010
Requeued flit 35968
Requeued flit 35924
Requeued flit 36250
Requeued flit 35928
Requeued flit 36815
Requeued flit 36804
Requeued flit 36901
Requeued flit 36880
Requeued flit 36711
Requeued flit 36919
Requeued flit 36923
Requeued flit 37046
Requeued flit 37440
Requeued flit 37240
Requeued flit 37585
Requeued flit 37903
Requeued flit 37610
Requeued flit 38122
Requeued flit 38163
Requeued flit 38298
Requeued flit 39004
Requeued flit 39042
Requeued flit 39311
Requeued flit 39702
Requeued flit 39363
Requeued flit 40095
Requeued flit 40132
Requeued flit 40093
Requeued flit 40686
Requeued flit 41132
Requeued flit 41236
Requeued flit 41129
Requeued flit 41340
Requeued flit 41668
Requeued flit 41429
Requeued flit 41930
Requeued flit 42193
Requeued flit 42547
Requeued flit 42723
Requeued flit 42359
Requeued flit 42718
Requeued flit 42963
Requeued flit 43113
Requeued flit 43039
Requeued flit 43143
Requeued flit 43170
Requeued flit 43472
Requeued flit 43333
Requeued flit 43633
Requeued flit 43674
Requeued flit 44159
Requeued flit 44108
Requeued flit 43922
Requeued flit 44362
Requeued flit 44442
Requeued flit 44609
Requeued flit 44957
Requeued flit 44666
Requeued flit 45116
Requeued flit 45910
Requeued flit 45987
Requeued flit 46073
Requeued flit 46000
Requeued flit 46404
Requeued flit 46917
Requeued flit 47014
Requeued flit 47287
Requeued flit 47233
Requeued flit 47247
Requeued flit 47514
Requeued flit 47624
Requeued flit 47797
Requeued flit 47447
Requeued flit 47926
Requeued flit 48192
Requeued flit 48216
Requeued flit 48063
Requeued flit 48573
Requeued flit 48891
Requeued flit 49057
Requeued flit 49046
Requeued flit 48940
Requeued flit 49251
Requeued flit 49417
Requeued flit 49423
Requeued flit 49858
Requeued flit 50269
Requeued flit 50543
Requeued flit 50380
Requeued flit 50440
Requeued flit 50194
Requeued flit 50640
Requeued flit 50900
Requeued flit 51111
Requeued flit 50959
Requeued flit 51325
Requeued flit 51306
Requeued flit 51658
Requeued flit 51931
Requeued flit 52156
Requeued flit 52248
Requeued flit 52451
Requeued flit 52698
Requeued flit 52501
Requeued flit 53014
Requeued flit 53022
Requeued flit 52915
Requeued flit 53042
Requeued flit 53214
Requeued flit 53511
Requeued flit 53590
Requeued flit 53319
Requeued flit 53616
Requeued flit 53775
Requeued flit 54051
Requeued flit 54034
Requeued flit 54130
Requeued flit 54601
Requeued flit 54639
Requeued flit 54781
Requeued flit 54873
Requeued flit 54976
Requeued flit 55374
Requeued flit 55737
Requeued flit 56203
Requeued flit 56464
Requeued flit 56720
Requeued flit 57420
Requeued flit 57505
Requeued flit 57741
Requeued flit 57748
Requeued flit 58040
Requeued flit 57834
Requeued flit 57790
Requeued flit 58203
Requeued flit 58178
Requeued flit 58387
Requeued flit 58356
Requeued flit 58575
Requeued flit 58909
Requeued flit 59157
Requeued flit 59232
Requeued flit 59195
Requeued flit 59421
Requeued flit 59583
Requeued flit 59444
Requeued flit 59984
Requeued flit 59751
Requeued flit 60112
Requeued flit 60174
Requeued flit 60470
Requeued flit 60374
Requeued flit 60811
Requeued flit 60815
Requeued flit 60872
Requeued flit 60252
Requeued flit 60804
Requeued flit 61106
Requeued flit 60668
Requeued flit 61209
Requeued flit 61294
Requeued flit 61580
Requeued flit 61345
Requeued flit 61705
Requeued flit 61690
Requeued flit 62041
Requeued flit 62395
Requeued flit 62558
Requeued flit 63131
Requeued flit 63272
Requeued flit 63334
Requeued flit 63040
Requeued flit 63068
Requeued flit 63343
Requeued flit 63786
Requeued flit 63620
Requeued flit 63733
Requeued flit 64268
Requeued flit 64371
Requeued flit 64643
Requeued flit 64184
Requeued flit 64958
Requeued flit 64795
Requeued flit 65289
Requeued flit 65388
Requeued flit 65336
Requeued flit 65472
Requeued flit 65220
Requeued flit 65552
Requeued flit 65381
Requeued flit 65979
Requeued flit 66345
Requeued flit 66494
Requeued flit 66341
Requeued flit 66726
Requeued flit 66712
Requeued flit 67102
Requeued flit 67276
Requeued flit 66925
Requeued flit 67227
Requeued flit 67198
Requeued flit 67602
Requeued flit 67832
Requeued flit 67740
Requeued flit 68061
Requeued flit 68159
Requeued flit 67808
Requeued flit 68440
Requeued flit 68317
Requeued flit 68486
Requeued flit 68742
Requeued flit 68941
Requeued flit 68940
Requeued flit 69396
Requeued flit 69099
Requeued flit 69282
Requeued flit 69599
Requeued flit 69662
Requeued flit 69757
Requeued flit 69837
Requeued flit 70128
Requeued flit 69475
Requeued flit 69921
Requeued flit 70727
Requeued flit 70793
Requeued flit 70560
Requeued flit 70918
Requeued flit 70838
Requeued flit 71303
Requeued flit 71692
Requeued flit 71804
Requeued flit 72078
Requeued flit 72513
Requeued flit 72570
Requeued flit 73219
Requeued flit 73421
Requeued flit 73634
Requeued flit 73718
Requeued flit 73933
Requeued flit 74020
Requeued flit 74009
Requeued flit 74026
Requeued flit 74310
Requeued flit 74471
Requeued flit 74590
Requeued flit 74562
Requeued flit 74403
Requeued flit 74457
Requeued flit 74926
Requeued flit 75081
Requeued flit 75089
Requeued flit 75332
Requeued flit 75439
Requeued flit 75510
Requeued flit 75514
Requeued flit 75845
Requeued flit 75538
Requeued flit 75945
Requeued flit 75943
Requeued flit 76164
Requeued flit 76550
Requeued flit 76761
Requeued flit 76760
Requeued flit 77344
Requeued flit 77334
Requeued flit 77592
Requeued flit 77850
Requeued flit 77829
Requeued flit 77853
Requeued flit 78190
Requeued flit 77601
Requeued flit 78306
Requeued flit 78378
Requeued flit 78916
Requeued flit 78877
Requeued flit 78718
Requeued flit 78612
Requeued flit 79056
Requeued flit 78757
Requeued flit 78686
Requeued flit 78814
Requeued flit 79381
Requeued flit 79207
Requeued flit 79485
Requeued flit 79523
Requeued flit 79549
Requeued flit 80265
Requeued flit 80384
Requeued flit 80431
Requeued flit 80551
Requeued flit 80392
Requeued flit 80932
Requeued flit 81372
Requeued flit 81463
Requeued flit 81504
Requeued flit 81550
Requeued flit 81787
Requeued flit 81684
Requeued flit 81544
Requeued flit 81920
Requeued flit 81620
Requeued flit 81775
Requeued flit 82244
Requeued flit 82571
Requeued flit 82474
Requeued flit 82706
Requeued flit 82719
Requeued flit 82939
Requeued flit 83279
Requeued flit 84151
Requeued flit 84268
Requeued flit 84346
Requeued flit 84409
Requeued flit 84325
Requeued flit 84704
Requeued flit 84592
Requeued flit 84476
Requeued flit 85364
Requeued flit 85261
Requeued flit 85303
Requeued flit 85234
Requeued flit 85434
Requeued flit 85753
Requeued flit 85754
Requeued flit 85474
Requeued flit 85409
Requeued flit 85974
Requeued flit 86324
Requeued flit 86465
Requeued flit 86474
Requeued flit 86634
Requeued flit 86586
Requeued flit 86932
Requeued flit 87299
Requeued flit 87254
Requeued flit 87471
Requeued flit 87439
Requeued flit 87457
Requeued flit 87494
Requeued flit 87920
Requeued flit 87996
Requeued flit 87955
Requeued flit 88084
Requeued flit 88352
Requeued flit 88508
Requeued flit 88258
Requeued flit 88929
Requeued flit 88487
Requeued flit 89233
Requeued flit 89478
Requeued flit 90344
Requeued flit 90300
Requeued flit 90662
Requeued flit 90688
Requeued flit 90605
Requeued flit 90771
Requeued flit 90976
Requeued flit 90831
Requeued flit 90795
Requeued flit 91296
Requeued flit 91235
Requeued flit 91392
Requeued flit 91558
Requeued flit 91931
Requeued flit 92052
Requeued flit 91988
Requeued flit 92146
Requeued flit 91897
Requeued flit 92290
Requeued flit 92427
Requeued flit 92664
Requeued flit 93220
Requeued flit 93401
Requeued flit 93263
Requeued flit 93311
Requeued flit 93670
Requeued flit 94071
Requeued flit 93443
Requeued flit 94015
Requeued flit 94213
Requeued flit 94143
Requeued flit 94134
Requeued flit 94211
Requeued flit 94751
Requeued flit 95022
Requeued flit 95401
Requeued flit 94998
Requeued flit 95512
Requeued flit 95295
Requeued flit 95874
Requeued flit 95846
Requeued flit 96093
Requeued flit 96300
Requeued flit 96246
Requeued flit 96208
Requeued flit 96375
Requeued flit 96257
Requeued flit 96553
Requeued flit 96828
Requeued flit 96776
Requeued flit 97014
Requeued flit 97184
Requeued flit 97087
Requeued flit 97209
Requeued flit 97089
Requeued flit 98168
Requeued flit 98392
Requeued flit 98057
Requeued flit 98457
Requeued flit 98455
Requeued flit 98867
Requeued flit 98933
Requeued flit 98887
Requeued flit 98974
Requeued flit 99216
Requeued flit 99181
Requeued flit 99332
Requeued flit 99329
Requeued flit 99418
Requeued flit 99075
Requeued flit 99535
Requeued flit 99250
Requeued flit 99644
Requeued flit 99656
Requeued flit 99596
Requeued flit 99984
Requeued flit 100436
Requeued flit 100671
Requeued flit 100656
Requeued flit 100951
Requeued flit 101567
Requeued flit 101250
Requeued flit 101787
Requeued flit 101865
Requeued flit 102320
Requeued flit 102092
Requeued flit 102181
Requeued flit 102757
Requeued flit 102770
Requeued flit 102848
Requeued flit 102751
Requeued flit 103085
Requeued flit 102900
Requeued flit 103162
Requeued flit 103379
Requeued flit 103034
Requeued flit 103568
Requeued flit 103970
Requeued flit 103792
Requeued flit 104166
Requeued flit 103655
Requeued flit 104460
Requeued flit 104331
Requeued flit 104660
Requeued flit 104852
Requeued flit 104918
Requeued flit 104972
Requeued flit 105730
Requeued flit 105685
Requeued flit 105707
Requeued flit 106207
Requeued flit 106279
Requeued flit 106132
Requeued flit 106538
Requeued flit 106555
Requeued flit 106715
Requeued flit 107001
Requeued flit 106879
Requeued flit 107087
Requeued flit 107333
Requeued flit 107295
Requeued flit 107437
Requeued flit 107560
Requeued flit 107555
Requeued flit 107619
Requeued flit 107787
Requeued flit 107958
Requeued flit 108111
Requeued flit 107577
Requeued flit 107884
Requeued flit 107834
Requeued flit 108548
Requeued flit 108787
Requeued flit 109085
Requeued flit 109075
Requeued flit 109027
Requeued flit 109494
Requeued flit 109275
Requeued flit 109931
Requeued flit 110149
Requeued flit 109988
Requeued flit 110244
Requeued flit 110037
Requeued flit 110418
Requeued flit 110152
Requeued flit 110533
Requeued flit 110805
Requeued flit 110848
Requeued flit 110839
Requeued flit 110671
Requeued flit 111041
Requeued flit 111199
Requeued flit 111099
Requeued flit 111640
Requeued flit 111661
Requeued flit 112096
Requeued flit 112060
Requeued flit 112571
Requeued flit 112652
Requeued flit 113273
Requeued flit 113492
Requeued flit 113586
Requeued flit 113895
Requeued flit 114158
Requeued flit 114491
Requeued flit 114842
Requeued flit 114969
Requeued flit 114826
Requeued flit 115037
Requeued flit 115157
Requeued flit 115585
Requeued flit 115204
Requeued flit 115734
Requeued flit 115798
Requeued flit 115707
Requeued flit 116180
Requeued flit 116222
Requeued flit 116128
Requeued flit 116462
Requeued flit 116568
Requeued flit 116316
Requeued flit 116833
Requeued flit 116988
Requeued flit 117574
Requeued flit 117673
Requeued flit 117725
Requeued flit 118110
Requeued flit 118227
Requeued flit 117946
Requeued flit 118496
Requeued flit 118159
Requeued flit 118334
Requeued flit 118363
Requeued flit 118467
Requeued flit 118738
Requeued flit 118361
Requeued flit 119108
Requeued flit 119149
Requeued flit 119007
Requeued flit 119044
Requeued flit 119495
Requeued flit 119461
Requeued flit 119586
Requeued flit 119801
Requeued flit 119672
Requeued flit 119839
Requeued flit 120106
Requeued flit 120455
Requeued flit 120474
Requeued flit 120946
Requeued flit 121168
Requeued flit 121285
Requeued flit 121460
Requeued flit 121269
Requeued flit 121596
Requeued flit 121668
Requeued flit 121977
Requeued flit 122452
Requeued flit 122811
Requeued flit 122620
Requeued flit 123131
Requeued flit 123517
Requeued flit 123345
Requeued flit 123602
Requeued flit 123822
Requeued flit 124214
Requeued flit 124292
Requeued flit 124482
Requeued flit 124486
Requeued flit 125167
Requeued flit 125164
Requeued flit 125478
Requeued flit 125494
Requeued flit 125827
Requeued flit 126058
Requeued flit 126168
Requeued flit 126077
Requeued flit 126087
Requeued flit 126691
Requeued flit 126755
Requeued flit 126926
Requeued flit 127151
Requeued flit 126783
Requeued flit 127024
Requeued flit 127218
Requeued flit 127420
Requeued flit 127267
Requeued flit 127127
Requeued flit 127662
Requeued flit 127328
Requeued flit 127851
Requeued flit 127709
Requeued flit 128221
Requeued flit 128324
Requeued flit 128396
Requeued flit 128525
Requeued flit 128764
Requeued flit 128815
Requeued flit 128854
Requeued flit 129161
Requeued flit 129145
Requeued flit 129168
Requeued flit 129425
Requeued flit 129993
Requeued flit 129985
Requeued flit 129918
Requeued flit 130082
Requeued flit 130383
Requeued flit 130599
Requeued flit 130707
Requeued flit 130736
Requeued flit 131094
Requeued flit 131154
Requeued flit 130755
Requeued flit 131263
Requeued flit 131370
Requeued flit 131451
Requeued flit 131855
Requeued flit 131913
Requeued flit 132015
Requeued flit 131940
Requeued flit 131755
Requeued flit 132794
Requeued flit 132883
Requeued flit 133024
Requeued flit 132686
Requeued flit 132902
Requeued flit 132884
Requeued flit 133189
Requeued flit 133298
Requeued flit 133213
Requeued flit 133881
Requeued flit 133582
Requeued flit 133715
Requeued flit 133892
Requeued flit 134195
Requeued flit 134288
Requeued flit 134666
Requeued flit 134209
Requeued flit 134583
Requeued flit 135097
Requeued flit 135117
Requeued flit 135000
Requeued flit 135359
Requeued flit 135286
Requeued flit 135556
Requeued flit 135702
Requeued flit 136472
Requeued flit 136645
Requeued flit 136714
Requeued flit 137063
Requeued flit 138343
Requeued flit 138651
Requeued flit 138549
Requeued flit 138976
Requeued flit 139264
Requeued flit 139267
Requeued flit 139478
Requeued flit 139182
Requeued flit 139507
Requeued flit 139264
Requeued flit 139834
Requeued flit 139699
Requeued flit 139829
Requeued flit 139931
Requeued flit 139843
Requeued flit 140511
Requeued flit 140652
Requeued flit 140972
Requeued flit 141172
Requeued flit 141334
Requeued flit 141155
Requeued flit 142312
Requeued flit 142272
Requeued flit 142104
Requeued flit 142191
Requeued flit 142083
Requeued flit 142360
Requeued flit 142575
Requeued flit 142343
Requeued flit 142655
Requeued flit 142936
Requeued flit 142659
Requeued flit 142730
Requeued flit 143154
Requeued flit 143234
Requeued flit 143438
Requeued flit 143290
Requeued flit 143860
Requeued flit 143914
Requeued flit 143949
Requeued flit 144205
Requeued flit 143952
Requeued flit 144165
Requeued flit 144294
Requeued flit 144138
Requeued flit 143867
Requeued flit 144553
Requeued flit 144500
Requeued flit 144927
Requeued flit 145135
Requeued flit 144709
Requeued flit 145126
Requeued flit 145034
Requeued flit 145223
Requeued flit 145658
Requeued flit 145896
Requeued flit 145616
Requeued flit 146158
Requeued flit 145961
Requeued flit 146741
Requeued flit 146737
Requeued flit 146747
Requeued flit 146805
Requeued flit 147055
Requeued flit 147026
Requeued flit 147321
Requeued flit 147172
Requeued flit 147502
Requeued flit 147051
Requeued flit 147138
Requeued flit 147633
Requeued flit 147946
Requeued flit 147749
Requeued flit 147759
Requeued flit 148169
Requeued flit 148271
Requeued flit 148158
Requeued flit 148504
Requeued flit 148791
Requeued flit 148574
Requeued flit 148920
Requeued flit 149249
Requeued flit 148951
Requeued flit 149514
Requeued flit 149586
Requeued flit 149207
Requeued flit 149597
Requeued flit 149920
Requeued flit 150071
Requeued flit 150096
Requeued flit 150402
Requeued flit 150569
Requeued flit 150631
Requeued flit 150941
Requeued flit 151491
Requeued flit 151592
Requeued flit 151785
Requeued flit 151609
Requeued flit 151579
Requeued flit 152759
Requeued flit 152536
Requeued flit 153224
Requeued flit 153494
Requeued flit 153036
Requeued flit 153617
Requeued flit 153776
Requeued flit 153692
Requeued flit 153642
Requeued flit 153917
Requeued flit 154229
Requeued flit 154448
Requeued flit 154535
Requeued flit 154934
Requeued flit 154946
Requeued flit 155276
Requeued flit 155370
Requeued flit 155464
Requeued flit 155699
Requeued flit 155773
Requeued flit 155697
Requeued flit 155943
Requeued flit 156207
Requeued flit 156346
Requeued flit 156511
Requeued flit 156324
Requeued flit 156510
Requeued flit 156707
Requeued flit 156887
Requeued flit 157302
Requeued flit 157165
Requeued flit 157500
Requeued flit 157511
Requeued flit 157426
Requeued flit 157486
Requeued flit 158111
Requeued flit 158047
Requeued flit 158288
Requeued flit 158610
Requeued flit 158911
Requeued flit 159583
Requeued flit 159464
Requeued flit 160091
Requeued flit 159923
Requeued flit 160485
Requeued flit 160373
Requeued flit 160740
Requeued flit 160827
Requeued flit 160623
Requeued flit 160782
Requeued flit 161012
Requeued flit 161390
Requeued flit 161238
Requeued flit 161576
Requeued flit 161723
Requeued flit 161675
Requeued flit 161576
Requeued flit 161903
Requeued flit 161655
Requeued flit 161908
Requeued flit 161934
Requeued flit 162234
Requeued flit 162266
Requeued flit 162425
Requeued flit 162541
Requeued flit 162182
Requeued flit 162684
Requeued flit 162772
Requeued flit 162717
Requeued flit 163199
Requeued flit 163660
Requeued flit 163523
Requeued flit 164028
Requeued flit 164158
Requeued flit 164471
Requeued flit 164893
Requeued flit 164875
Requeued flit 165022
Requeued flit 164877
Requeued flit 165288
Requeued flit 164906
Requeued flit 165464
Requeued flit 165243
Requeued flit 165794
Requeued flit 165677
Requeued flit 166005
Requeued flit 166057
Requeued flit 165997
Requeued flit 166140
Requeued flit 166417
Requeued flit 166722
Requeued flit 166801
Requeued flit 167076
Requeued flit 167037
Requeued flit 167555
Requeued flit 167483
Requeued flit 168040
Requeued flit 168506
Requeued flit 168027
Requeued flit 168531
Requeued flit 168817
Requeued flit 168865
Requeued flit 168745
Requeued flit 168969
Requeued flit 169183
Requeued flit 169180
Requeued flit 169887
Requeued flit 169900
Requeued flit 170076
Requeued flit 170158
Requeued flit 170398
Requeued flit 171260
Requeued flit 171262
Requeued flit 171327
Requeued flit 171310
Requeued flit 171673
Requeued flit 171527
Requeued flit 171774
Requeued flit 171802
Requeued flit 172056
Requeued flit 172438
Requeued flit 172647
Requeued flit 172584
Requeued flit 173342
Requeued flit 173195
Requeued flit 173531
Requeued flit 173702
Requeued flit 173658
Requeued flit 173693
Requeued flit 173675
Requeued flit 173634
Requeued flit 174067
Requeued flit 174345
Requeued flit 174934
Requeued flit 174916
Requeued flit 174896
Requeued flit 175099
Requeued flit 174972
Requeued flit 175139
Requeued flit 174927
Requeued flit 175294
Requeued flit 175344
Requeued flit 175479
Requeued flit 175380
Requeued flit 175316
Requeued flit 176253
Requeued flit 176554
Requeued flit 176575
Requeued flit 176337
Requeued flit 176685
Requeued flit 177216
Requeued flit 177268
Requeued flit 177264
Requeued flit 177172
Requeued flit 177783
Requeued flit 177789
Requeued flit 178574
Requeued flit 178612
Requeued flit 178571
Requeued flit 178383
Requeued flit 179289
Requeued flit 179103
Requeued flit 179721
Requeued flit 179635
Requeued flit 179804
Requeued flit 179805
Requeued flit 180145
Requeued flit 179836
Requeued flit 180368
Requeued flit 180084
Requeued flit 180268
Requeued flit 180647
Requeued flit 180572
Requeued flit 180794
Requeued flit 180581
Requeued flit 180772
Requeued flit 181222
Requeued flit 181535
Requeued flit 181447
Requeued flit 181717
Requeued flit 181812
Requeued flit 181720
Requeued flit 182113
Requeued flit 182070
Requeued flit 182085
Requeued flit 182344
Requeued flit 182367
Requeued flit 182665
Requeued flit 182828
Requeued flit 183400
Requeued flit 183468
Requeued flit 183620
Requeued flit 183541
Requeued flit 183659
Requeued flit 184017
Requeued flit 184092
Requeued flit 184118
Requeued flit 184193
Requeued flit 183957
Requeued flit 184067
Requeued flit 184318
Requeued flit 184394
Requeued flit 184453
Requeued flit 184448
Requeued flit 184830
Requeued flit 184921
Requeued flit 185251
Requeued flit 185513
Requeued flit 185780
Requeued flit 185855
Requeued flit 186237
Requeued flit 186322
Requeued flit 186459
Requeued flit 186869
Requeued flit 187153
Requeued flit 187391
Requeued flit 187978
Requeued flit 188074
Requeued flit 188351
Requeued flit 188118
Requeued flit 188284
Requeued flit 188704
Requeued flit 188684
Requeued flit 188731
Requeued flit 188539
Requeued flit 188817
Requeued flit 189219
Requeued flit 189249
Requeued flit 189589
Requeued flit 189308
Requeued flit 189396
Requeued flit 189958
Requeued flit 189842
Requeued flit 190295
Requeued flit 190270
Requeued flit 190291
Requeued flit 190614
Requeued flit 190967
Requeued flit 190883
Requeued flit 191376
Class 0:
Packet latency average = 22.1716
	minimum = 5
	maximum = 66
Network latency average = 22.1716
	minimum = 5
	maximum = 66
Slowest packet = 175316
Flit latency average = 22.1716
	minimum = 5
	maximum = 66
Slowest flit = 175316
Fragmentation average = 0
	minimum = 0
	maximum = 0
Injected packet rate average = 0.299513
	minimum = 0.2832 (at node 11)
	maximum = 0.3096 (at node 10)
Accepted packet rate average = 0.298848
	minimum = 0.2885 (at node 33)
	maximum = 0.3119 (at node 53)
Injected flit rate average = 0.299513
	minimum = 0.2832 (at node 11)
	maximum = 0.3096 (at node 10)
Accepted flit rate average= 0.298848
	minimum = 0.2885 (at node 33)
	maximum = 0.3119 (at node 53)
Injected packet length average = 1
Accepted packet length average = 1
Total in-flight flits = 425 (0 measured)
latency change    = 1
throughput change = 1
Requeued flit 191636
Requeued flit 191675
Requeued flit 191513
10018 | node26 | Enqueuing flit 192022 (packet 192022) at time 10018.
10018 | traffic_manager | Finding output VC for flit 192022:
10018 | traffic_manager |   Selected output VC 0.
10018 | network_0/router_3_2 | Adding VC range [0,1] at output port 0 for flit 192022 (input port 4, destination 44).
10018 | node26 | Generating lookahead routing info for flit 192022.
10018 | node26 | Injecting flit 192022 into subnet 0 at time 10018 with priority 0.
10019 | network_0/network_0_fchan_ingress26 | Beginning channel traversal for flit 192022 with delay 1.
10019 | network_0/network_0_fchan_ingress26 | Completed channel traversal for flit 192022.
10020 | network_0/router_3_2 | Received flit 192022 from channel at input 4.
10020 | network_0/router_3_2 | Adding flit 192022 to VC 0 at input 4 (state: idle, empty).
10020 | network_0/router_3_2 | Using precomputed lookahead routing information for VC 0 at input 4 (front: 192022).
10020 | network_0/router_3_2/buf_4/vc_0 | Changing state from idle to vc_alloc.
10020 | network_0/router_3_2 | Beginning VC allocation for VC 0 at input 4 (front: 192022).
10020 | network_0/router_3_2 |   Requesting VC 0 at output 0 (in_pri: 0, out_pri: 0).
10020 | network_0/router_3_2 |   Requesting VC 1 at output 0 (in_pri: 0, out_pri: 0).
10020 | network_0/router_3_2/vc_allocator | Input requests = [ 3 -> [ 4@0 ]  8 -> [ 0@0 1@0 ]  ], output requests = [ 0 -> [ 8@0 ]  1 -> [ 8@0 ]  4 -> [ 3@0 ]  ].
10020 | network_0/router_3_2/vc_allocator | Input grants = [ 3 -> 4  8 -> 0  ], output grants = [ 0 -> 8  4 -> 3  ].
10020 | network_0/router_3_2 | Assigning VC 0 at output 0 to VC 0 at input 4.
10020 | network_0/router_3_2 | Completed VC allocation for VC 0 at input 4 (front: 192022).
10020 | network_0/router_3_2 |   Acquiring assigned VC 0 at output 0.
10020 | network_0/router_3_2/buf_4/vc_0 | Changing state from vc_alloc to active.
10020 | network_0/router_3_2 | Beginning switch allocation for VC 0 at input 4 (front: 192022).
10020 | network_0/router_3_2 |   Requesting output 0.0 (non-spec, pri: 0).
10020 | network_0/router_3_2/sw_allocator | Input requests = [ 1 -> [ 2@0 ]  4 -> [ 0@0 ]  ], output requests = [ 0 -> [ 4@0 ]  2 -> [ 1@0 ]  ].
10020 | network_0/router_3_2/sw_allocator | Input grants = [ 1 -> 2  4 -> 0  ], output grants = [ 0 -> 4  2 -> 1  ].
10020 | network_0/router_3_2 | Assigning output 0.0 to VC 0 at input 4.0.
10020 | network_0/router_3_2 | Completed switch allocation for VC 0 at input 4 (front: 192022).
10020 | network_0/router_3_2 |   Scheduling switch connection from input 4.0 to output 0.0.
10020 | network_0/router_3_2 | Updating lookahead routing information for flit 192022.
10020 | network_0/router_3_3 | Adding VC range [0,1] at output port 0 for flit 192022 (input port 1, destination 44).
10021 | network_0/router_3_2 | Beginning crossbar traversal for flit 192022 from input 4.0 to output 0.0.
10021 | network_0/router_3_2 | Completed crossbar traversal for flit 192022 from input 4.0 to output 0.0.
10021 | network_0/router_3_2 | Buffering flit 192022 at output 0.
10021 | network_0/router_3_2 | Sending flit 192022 to channel at output 0.
10022 | network_0/network_0_fchan_104 | Beginning channel traversal for flit 192022 with delay 1.
10022 | network_0/network_0_fchan_104 | Completed channel traversal for flit 192022.
10023 | network_0/router_3_3 | Received flit 192022 from channel at input 1.
10023 | network_0/router_3_3 | Adding flit 192022 to VC 0 at input 1 (state: idle, empty).
10023 | network_0/router_3_3 | Using precomputed lookahead routing information for VC 0 at input 1 (front: 192022).
10023 | network_0/router_3_3/buf_1/vc_0 | Changing state from idle to vc_alloc.
10023 | network_0/router_3_3 | Beginning VC allocation for VC 0 at input 1 (front: 192022).
10023 | network_0/router_3_3 |   Requesting VC 0 at output 0 (in_pri: 0, out_pri: 0).
10023 | network_0/router_3_3 |   Requesting VC 1 at output 0 (in_pri: 0, out_pri: 0).
10023 | network_0/router_3_3/vc_allocator | Input requests = [ 2 -> [ 0@0 1@0 ]  4 -> [ 8@0 9@0 ]  8 -> [ 0@0 1@0 ]  ], output requests = [ 0 -> [ 2@0 8@0 ]  1 -> [ 2@0 8@0 ]  8 -> [ 4@0 ]  9 -> [ 4@0 ]  ].
10023 | network_0/router_3_3/vc_allocator | Input grants = [ 2 -> 0  4 -> 9  ], output grants = [ 0 -> 2  9 -> 4  ].
10023 | network_0/router_3_3 | Assigning VC 0 at output 0 to VC 0 at input 1.
10023 | network_0/router_3_3 | Completed VC allocation for VC 0 at input 1 (front: 192022).
10023 | network_0/router_3_3 |   Acquiring assigned VC 0 at output 0.
10023 | network_0/router_3_3/buf_1/vc_0 | Changing state from vc_alloc to active.
10023 | network_0/router_3_3 | Beginning switch allocation for VC 0 at input 1 (front: 192022).
10023 | network_0/router_3_3 |   Requesting output 0.0 (non-spec, pri: 0).
10023 | network_0/router_3_3/sw_allocator | Input requests = [ 1 -> [ 0@0 ]  2 -> [ 4@0 ]  ], output requests = [ 0 -> [ 1@0 ]  4 -> [ 2@0 ]  ].
10023 | network_0/router_3_3/sw_allocator | Input grants = [ 1 -> 0  2 -> 4  ], output grants = [ 0 -> 1  4 -> 2  ].
10023 | network_0/router_3_3 | Assigning output 0.0 to VC 0 at input 1.0.
10023 | network_0/router_3_3 | Completed switch allocation for VC 0 at input 1 (front: 192022).
10023 | network_0/router_3_3 |   Scheduling switch connection from input 1.0 to output 0.0.
10023 | network_0/router_3_3 | Updating lookahead routing information for flit 192022.
10023 | network_0/router_3_4 | Adding VC range [0,1] at output port 2 for flit 192022 (input port 1, destination 44).
10024 | network_0/router_3_3 | Beginning crossbar traversal for flit 192022 from input 1.0 to output 0.0.
10024 | network_0/router_3_3 | Completed crossbar traversal for flit 192022 from input 1.0 to output 0.0.
10024 | network_0/router_3_3 | Buffering flit 192022 at output 0.
10024 | network_0/router_3_3 | Sending flit 192022 to channel at output 0.
10025 | network_0/network_0_fchan_108 | Beginning channel traversal for flit 192022 with delay 1.
10025 | network_0/network_0_fchan_108 | Completed channel traversal for flit 192022.
10026 | network_0/router_3_4 | Received flit 192022 from channel at input 1.
10026 | network_0/router_3_4 | Adding flit 192022 to VC 0 at input 1 (state: idle, empty).
10026 | network_0/router_3_4 | Using precomputed lookahead routing information for VC 0 at input 1 (front: 192022).
10026 | network_0/router_3_4/buf_1/vc_0 | Changing state from idle to vc_alloc.
10026 | network_0/router_3_4 | Beginning VC allocation for VC 0 at input 1 (front: 192022).
10026 | network_0/router_3_4 |   Requesting VC 0 at output 2 (in_pri: 0, out_pri: 0).
10026 | network_0/router_3_4 |   Requesting VC 1 at output 2 (in_pri: 0, out_pri: 0).
10026 | network_0/router_3_4/vc_allocator | Input requests = [ 2 -> [ 4@0 5@0 ]  ], output requests = [ 4 -> [ 2@0 ]  5 -> [ 2@0 ]  ].
10026 | network_0/router_3_4/vc_allocator | Input grants = [ 2 -> 4  ], output grants = [ 4 -> 2  ].
10026 | network_0/router_3_4 | Assigning VC 0 at output 2 to VC 0 at input 1.
10026 | network_0/router_3_4 | Completed VC allocation for VC 0 at input 1 (front: 192022).
10026 | network_0/router_3_4 |   Acquiring assigned VC 0 at output 2.
10026 | network_0/router_3_4/buf_1/vc_0 | Changing state from vc_alloc to active.
10026 | network_0/router_3_4 | Beginning switch allocation for VC 0 at input 1 (front: 192022).
10026 | network_0/router_3_4 |   Requesting output 2.0 (non-spec, pri: 0).
10026 | network_0/router_3_4/sw_allocator | Input requests = [ 1 -> [ 2@0 ]  ], output requests = [ 2 -> [ 1@0 ]  ].
10026 | network_0/router_3_4/sw_allocator | Input grants = [ 1 -> 2  ], output grants = [ 2 -> 1  ].
10026 | network_0/router_3_4 | Assigning output 2.0 to VC 0 at input 1.0.
10026 | network_0/router_3_4 | Completed switch allocation for VC 0 at input 1 (front: 192022).
10026 | network_0/router_3_4 |   Scheduling switch connection from input 1.0 to output 2.0.
10026 | network_0/router_3_4 | Updating lookahead routing information for flit 192022.
10026 | network_0/router_4_4 | Adding VC range [0,1] at output port 2 for flit 192022 (input port 3, destination 44).
Requeued flit 191994
10027 | network_0/router_3_4 | Beginning crossbar traversal for flit 192022 from input 1.0 to output 2.0.
10027 | network_0/router_3_4 | Completed crossbar traversal for flit 192022 from input 1.0 to output 2.0.
10027 | network_0/router_3_4 | Buffering flit 192022 at output 2.
Requeued flit 191802
10027 | network_0/router_3_4 | Sending flit 192022 to channel at output 2.
10028 | network_0/network_0_fchan_114 | Beginning channel traversal for flit 192022 with delay 1.
10028 | network_0/network_0_fchan_114 | Completed channel traversal for flit 192022.
10029 | network_0/router_4_4 | Received flit 192022 from channel at input 3.
10029 | network_0/router_4_4 | Adding flit 192022 to VC 0 at input 3 (state: idle, empty).
10029 | network_0/router_4_4 | Using precomputed lookahead routing information for VC 0 at input 3 (front: 192022).
10029 | network_0/router_4_4/buf_3/vc_0 | Changing state from idle to vc_alloc.
10029 | network_0/router_4_4 | Beginning VC allocation for VC 0 at input 3 (front: 192022).
10029 | network_0/router_4_4 |   Requesting VC 0 at output 2 (in_pri: 0, out_pri: 0).
10029 | network_0/router_4_4 |   Requesting VC 1 at output 2 (in_pri: 0, out_pri: 0).
10029 | network_0/router_4_4/vc_allocator | Input requests = [ 1 -> [ 6@0 7@0 ]  6 -> [ 4@0 5@0 ]  ], output requests = [ 4 -> [ 6@0 ]  5 -> [ 6@0 ]  6 -> [ 1@0 ]  7 -> [ 1@0 ]  ].
10029 | network_0/router_4_4/vc_allocator | Input grants = [ 1 -> 6  6 -> 5  ], output grants = [ 5 -> 6  6 -> 1  ].
10029 | network_0/router_4_4 | Assigning VC 1 at output 2 to VC 0 at input 3.
10029 | network_0/router_4_4 | Completed VC allocation for VC 0 at input 3 (front: 192022).
10029 | network_0/router_4_4 |   Acquiring assigned VC 1 at output 2.
10029 | network_0/router_4_4/buf_3/vc_0 | Changing state from vc_alloc to active.
10029 | network_0/router_4_4 | Beginning switch allocation for VC 0 at input 3 (front: 192022).
10029 | network_0/router_4_4 |   Requesting output 2.0 (non-spec, pri: 0).
10029 | network_0/router_4_4/sw_allocator | Input requests = [ 0 -> [ 3@0 ]  3 -> [ 2@0 ]  ], output requests = [ 2 -> [ 3@0 ]  3 -> [ 0@0 ]  ].
10029 | network_0/router_4_4/sw_allocator | Input grants = [ 0 -> 3  3 -> 2  ], output grants = [ 2 -> 3  3 -> 0  ].
10029 | network_0/router_4_4 | Assigning output 2.0 to VC 0 at input 3.0.
10029 | network_0/router_4_4 | Completed switch allocation for VC 0 at input 3 (front: 192022).
10029 | network_0/router_4_4 |   Scheduling switch connection from input 3.0 to output 2.0.
10029 | network_0/router_4_4 | Updating lookahead routing information for flit 192022.
10029 | network_0/router_5_4 | Adding VC range [0,1] at output port 4 for flit 192022 (input port 3, destination 44).
10030 | network_0/router_4_4 | Beginning crossbar traversal for flit 192022 from input 3.0 to output 2.0.
10030 | network_0/router_4_4 | Completed crossbar traversal for flit 192022 from input 3.0 to output 2.0.
10030 | network_0/router_4_4 | Buffering flit 192022 at output 2.
10030 | network_0/router_4_4 | Sending flit 192022 to channel at output 2.
10031 | network_0/network_0_fchan_146 | Beginning channel traversal for flit 192022 with delay 1.
10031 | network_0/network_0_fchan_146 | Completed channel traversal for flit 192022.
10032 | network_0/router_5_4 | Received flit 192022 from channel at input 3.
10032 | network_0/router_5_4 | Adding flit 192022 to VC 1 at input 3 (state: idle, empty).
10032 | network_0/router_5_4 | Using precomputed lookahead routing information for VC 1 at input 3 (front: 192022).
10032 | network_0/router_5_4/buf_3/vc_1 | Changing state from idle to vc_alloc.
10032 | network_0/router_5_4 | Beginning VC allocation for VC 1 at input 3 (front: 192022).
10032 | network_0/router_5_4 |   Requesting VC 0 at output 4 (in_pri: 0, out_pri: 0).
10032 | network_0/router_5_4 |   Requesting VC 1 at output 4 (in_pri: 0, out_pri: 0).
10032 | network_0/router_5_4/vc_allocator | Input requests = [ 0 -> [ 2@0 3@0 ]  2 -> [ 8@0 9@0 ]  7 -> [ 8@0 9@0 ]  ], output requests = [ 2 -> [ 0@0 ]  3 -> [ 0@0 ]  8 -> [ 2@0 7@0 ]  9 -> [ 2@0 7@0 ]  ].
10032 | network_0/router_5_4/vc_allocator | Input grants = [ 0 -> 2  2 -> 8  ], output grants = [ 2 -> 0  8 -> 2  ].
10032 | network_0/router_5_4 | VC allocation failed for VC 1 at input 3.
10032 | network_0/router_5_4 | Completed VC allocation for VC 1 at input 3 (front: 192022).
10032 | network_0/router_5_4 |   No output VC allocated.
10032 | network_0/router_5_4 | Beginning VC allocation for VC 1 at input 3 (front: 192022).
10032 | network_0/router_5_4 |   VC 0 at output 4 is in use by VC 0 at input 1 (front flit: 192152).
10032 | network_0/router_5_4 |   Requesting VC 1 at output 4 (in_pri: 0, out_pri: 0).
10032 | network_0/router_5_4/vc_allocator | Input requests = [ 7 -> [ 9@0 ]  ], output requests = [ 9 -> [ 7@0 ]  ].
10032 | network_0/router_5_4/vc_allocator | Input grants = [ 7 -> 9  ], output grants = [ 9 -> 7  ].
10032 | network_0/router_5_4 | Assigning VC 1 at output 4 to VC 1 at input 3.
10032 | network_0/router_5_4 | Completed VC allocation for VC 1 at input 3 (front: 192022).
10032 | network_0/router_5_4 |   Acquiring assigned VC 1 at output 4.
10032 | network_0/router_5_4/buf_3/vc_1 | Changing state from vc_alloc to active.
Requeued flit 191756
10033 | network_0/router_5_4 | Beginning switch allocation for VC 1 at input 3 (front: 192022).
10033 | network_0/router_5_4 |   Requesting output 4.0 (non-spec, pri: 0).
10033 | network_0/router_5_4/sw_allocator | Input requests = [ 3 -> [ 4@0 ]  ], output requests = [ 4 -> [ 3@0 ]  ].
10033 | network_0/router_5_4/sw_allocator | Input grants = [ 3 -> 4  ], output grants = [ 4 -> 3  ].
10033 | network_0/router_5_4 | Assigning output 4.0 to VC 1 at input 3.0.
10033 | network_0/router_5_4 | Completed switch allocation for VC 1 at input 3 (front: 192022).
10033 | network_0/router_5_4 |   Scheduling switch connection from input 3.0 to output 4.0.
10033 | network_0/router_5_4 | Beginning crossbar traversal for flit 192022 from input 3.0 to output 4.0.
10033 | network_0/router_5_4 | Completed crossbar traversal for flit 192022 from input 3.0 to output 4.0.
10033 | network_0/router_5_4 | Buffering flit 192022 at output 4.
Requeued flit 191810
Requeued flit 191925
10034 | network_0/router_5_4 | Sending flit 192022 to channel at output 4.
10035 | network_0/network_0_fchan_egress44 | Beginning channel traversal for flit 192022 with delay 1.
10035 | network_0/network_0_fchan_egress44 | Completed channel traversal for flit 192022.
10036 | node44 | Ejecting flit 192022 (packet 192022) from VC 1.
10036 | node44 | Injecting credit for VC 1 into subnet 0.
10036 | node44 | Retiring flit 192022 (packet 192022, src = 26, dest = 44, hops = 5, flat = 18).
10036 | node44 | Retiring packet 192022 (plat = 18, nlat = 18, frag = 0, src = 26, dest = 44).
Requeued flit 192192
Requeued flit 192472
Requeued flit 192712
Requeued flit 192807
Requeued flit 192663
Requeued flit 192841
Requeued flit 193013
Requeued flit 193504
Requeued flit 193540
Requeued flit 193264
Requeued flit 193716
Requeued flit 193828
Requeued flit 194040
Requeued flit 193837
Requeued flit 193654
Requeued flit 194084
Requeued flit 194061
Requeued flit 194393
Requeued flit 194274
Requeued flit 194214
Requeued flit 194736
Requeued flit 195335
Requeued flit 195360
Requeued flit 195295
Requeued flit 195391
Requeued flit 195568
Requeued flit 195084
Requeued flit 195601
Requeued flit 195825
Requeued flit 196372
Requeued flit 196445
Requeued flit 196536
Requeued flit 196437
Requeued flit 196937
Requeued flit 196737
Requeued flit 196984
Requeued flit 197045
Requeued flit 197456
Requeued flit 197804
Requeued flit 197901
Requeued flit 197902
Requeued flit 197956
Requeued flit 198076
Requeued flit 198164
Requeued flit 198330
Requeued flit 198414
Requeued flit 198766
Requeued flit 198958
Requeued flit 199732
Requeued flit 199859
Requeued flit 199937
Requeued flit 200299
Requeued flit 200466
Requeued flit 200621
Requeued flit 201328
Requeued flit 201424
Requeued flit 200881
Requeued flit 201376
Requeued flit 201658
Requeued flit 201686
Requeued flit 202233
Requeued flit 202348
Requeued flit 201874
Requeued flit 202316
Requeued flit 202883
Requeued flit 202838
Requeued flit 202980
Requeued flit 203440
Requeued flit 203892
Requeued flit 203660
Requeued flit 204072
Requeued flit 204103
Requeued flit 204055
Requeued flit 204351
Requeued flit 204510
Requeued flit 204415
Requeued flit 204714
Requeued flit 204854
Requeued flit 204381
Requeued flit 205211
Requeued flit 205156
Requeued flit 205513
Requeued flit 205567
Requeued flit 205733
Requeued flit 206080
Requeued flit 206175
Requeued flit 206747
Requeued flit 206463
Requeued flit 207109
Requeued flit 206863
Requeued flit 207144
Requeued flit 207053
Requeued flit 207474
Requeued flit 207756
Requeued flit 207938
Requeued flit 208499
Requeued flit 208397
Requeued flit 208559
Requeued flit 208340
Requeued flit 208430
Requeued flit 208460
Requeued flit 208544
Requeued flit 208642
Requeued flit 209344
Requeued flit 209714
Requeued flit 209891
Requeued flit 210000
Requeued flit 210176
Requeued flit 210592
Requeued flit 210814
Requeued flit 211195
Requeued flit 211619
Requeued flit 211329
Requeued flit 211406
Requeued flit 211794
Requeued flit 211684
Requeued flit 211779
Requeued flit 212164
Requeued flit 212350
Requeued flit 212537
Requeued flit 212738
Requeued flit 212792
Requeued flit 212844
Requeued flit 212806
Requeued flit 213095
Requeued flit 213576
Requeued flit 213557
Requeued flit 213921
Requeued flit 214149
Requeued flit 214508
Requeued flit 214585
Requeued flit 214993
Requeued flit 215087
Requeued flit 215223
Requeued flit 215343
Requeued flit 215596
Requeued flit 215503
Requeued flit 215497
Requeued flit 215714
Requeued flit 215596
Requeued flit 216049
Requeued flit 216376
Requeued flit 216284
Requeued flit 216897
Requeued flit 217074
Requeued flit 217207
Requeued flit 217281
Requeued flit 216968
Requeued flit 217322
Requeued flit 217363
Requeued flit 216742
Requeued flit 217578
Requeued flit 217908
Requeued flit 217674
Requeued flit 218227
Requeued flit 218147
Requeued flit 218389
Requeued flit 218555
Requeued flit 218492
Requeued flit 218384
Requeued flit 218622
Requeued flit 218686
Requeued flit 219128
Requeued flit 219017
Requeued flit 219241
Requeued flit 219283
Requeued flit 219152
Requeued flit 219420
Requeued flit 219128
Requeued flit 219527
Requeued flit 219598
Requeued flit 219987
Requeued flit 219729
Requeued flit 219703
Requeued flit 220207
Requeued flit 220127
Requeued flit 220237
Requeued flit 220817
Requeued flit 220819
Requeued flit 220591
Requeued flit 220831
Requeued flit 221057
Requeued flit 221236
Requeued flit 220938
Requeued flit 221277
Requeued flit 221398
Requeued flit 221421
Requeued flit 221530
Requeued flit 221752
Requeued flit 221967
Requeued flit 222109
Requeued flit 221965
Requeued flit 222331
Requeued flit 222201
Requeued flit 222798
Requeued flit 222960
Requeued flit 222808
Requeued flit 222721
Requeued flit 223026
Requeued flit 223059
Requeued flit 223206
Requeued flit 223243
Requeued flit 223221
Requeued flit 223157
Requeued flit 223208
Requeued flit 223563
Requeued flit 223244
Requeued flit 223810
Requeued flit 224192
Requeued flit 224228
Requeued flit 224321
Requeued flit 224310
Requeued flit 224297
Requeued flit 224149
Requeued flit 224480
Requeued flit 224565
Requeued flit 224560
Requeued flit 224330
Requeued flit 225113
Requeued flit 225072
Requeued flit 225678
Requeued flit 225665
Requeued flit 225745
Requeued flit 225945
Requeued flit 226106
Requeued flit 226170
Requeued flit 226266
Requeued flit 226261
Requeued flit 226460
Requeued flit 226098
Requeued flit 226517
Requeued flit 227224
Requeued flit 227494
Requeued flit 227454
Requeued flit 227671
Requeued flit 228498
Requeued flit 228569
Requeued flit 228486
Requeued flit 229124
Requeued flit 229120
Requeued flit 229077
Requeued flit 229234
Requeued flit 229231
Requeued flit 229083
Requeued flit 229407
Requeued flit 229642
Requeued flit 230185
Requeued flit 230281
Requeued flit 230559
Requeued flit 230758
Requeued flit 230728
Requeued flit 230787
Requeued flit 230905
Requeued flit 230717
Requeued flit 231269
Requeued flit 231095
Requeued flit 231372
Requeued flit 231516
Requeued flit 231641
Requeued flit 231830
Requeued flit 231714
Requeued flit 231923
Requeued flit 232056
Requeued flit 232623
Requeued flit 232595
Requeued flit 232878
Requeued flit 232885
Requeued flit 232972
Requeued flit 233011
Requeued flit 232822
Requeued flit 233245
Requeued flit 233262
Requeued flit 233127
Requeued flit 233547
Requeued flit 233441
Requeued flit 233416
Requeued flit 233365
Requeued flit 233871
Requeued flit 234445
Requeued flit 234546
Requeued flit 234800
Requeued flit 234874
Requeued flit 235107
Requeued flit 235199
Requeued flit 235245
Requeued flit 235193
Requeued flit 235258
Requeued flit 235714
Requeued flit 235723
Requeued flit 235930
Requeued flit 236151
Requeued flit 235807
Requeued flit 236140
Requeued flit 236184
Requeued flit 235539
Requeued flit 236506
Requeued flit 236617
Requeued flit 236756
Requeued flit 236975
Requeued flit 237135
Requeued flit 237102
Requeued flit 236942
Requeued flit 237226
Requeued flit 236985
Requeued flit 237365
Requeued flit 237416
Requeued flit 237508
Requeued flit 237231
Requeued flit 237426
Requeued flit 237731
Requeued flit 237666
Requeued flit 238079
Requeued flit 237864
Requeued flit 238754
Requeued flit 238788
Requeued flit 239199
Requeued flit 239183
Requeued flit 239788
Requeued flit 239817
Requeued flit 239917
Requeued flit 240507
Requeued flit 240198
Requeued flit 240546
Requeued flit 240881
Requeued flit 241146
Requeued flit 241013
Requeued flit 241322
Requeued flit 241458
Requeued flit 241809
Requeued flit 241766
Requeued flit 242029
Requeued flit 242064
Requeued flit 242112
Requeued flit 242564
Requeued flit 242852
Requeued flit 243056
Requeued flit 243205
Requeued flit 243416
Requeued flit 243513
Requeued flit 243826
Requeued flit 243811
Requeued flit 243827
Requeued flit 243570
Requeued flit 243602
Requeued flit 243983
Requeued flit 244094
Requeued flit 244322
Requeued flit 244563
Requeued flit 244673
Requeued flit 245036
Requeued flit 245011
Requeued flit 244809
Requeued flit 245037
Requeued flit 245329
Requeued flit 245488
Requeued flit 245711
Requeued flit 245876
Requeued flit 245772
Requeued flit 245945
Requeued flit 246328
Requeued flit 246192
Requeued flit 246288
Requeued flit 246618
Requeued flit 246949
Requeued flit 246832
Requeued flit 248311
Requeued flit 248525
Requeued flit 248593
Requeued flit 248789
Requeued flit 249198
Requeued flit 249565
Requeued flit 249424
Requeued flit 249811
Requeued flit 249358
Requeued flit 249844
Requeued flit 249941
Requeued flit 250460
Requeued flit 250133
Requeued flit 250504
Requeued flit 250644
Requeued flit 250863
Requeued flit 251568
Requeued flit 251255
Requeued flit 251574
Requeued flit 251677
Requeued flit 251631
Requeued flit 251862
Requeued flit 251971
Requeued flit 252151
Requeued flit 252041
Requeued flit 252100
Requeued flit 252262
Requeued flit 252483
Requeued flit 252831
Requeued flit 252846
Requeued flit 252784
Requeued flit 252883
Requeued flit 253060
Requeued flit 252784
Requeued flit 253348
Requeued flit 253271
Requeued flit 253581
Requeued flit 253661
Requeued flit 254155
Requeued flit 253914
Requeued flit 254198
Requeued flit 254511
Requeued flit 254457
Requeued flit 254560
Requeued flit 254862
Requeued flit 255190
Requeued flit 255565
Requeued flit 255585
Requeued flit 255295
Requeued flit 255768
Requeued flit 255833
Requeued flit 255659
Requeued flit 256108
Requeued flit 256667
Requeued flit 256774
Requeued flit 257198
Requeued flit 257146
Requeued flit 257478
Requeued flit 257703
Requeued flit 257608
Requeued flit 257927
Requeued flit 257850
Requeued flit 259045
Requeued flit 259413
Requeued flit 259111
Requeued flit 259646
Requeued flit 259362
Requeued flit 259646
Requeued flit 259813
Requeued flit 259839
Requeued flit 260319
Requeued flit 260367
Requeued flit 260257
Requeued flit 260043
Requeued flit 260579
Requeued flit 260621
Requeued flit 260834
Requeued flit 260796
Requeued flit 261003
Requeued flit 261378
Requeued flit 261511
Requeued flit 261865
Requeued flit 261739
Requeued flit 262035
Requeued flit 262607
Requeued flit 262336
Requeued flit 262856
Requeued flit 262889
Requeued flit 263209
Requeued flit 263175
Requeued flit 263366
Requeued flit 263386
Requeued flit 263249
Requeued flit 263311
Requeued flit 263779
Requeued flit 263942
Requeued flit 264110
Requeued flit 264118
Requeued flit 264450
Requeued flit 264427
Requeued flit 264883
Requeued flit 264976
Requeued flit 265094
Requeued flit 265494
Requeued flit 265451
Requeued flit 265989
Requeued flit 265821
Requeued flit 266194
Requeued flit 266584
Requeued flit 266148
Requeued flit 266533
Requeued flit 267048
Requeued flit 267230
Requeued flit 267582
Requeued flit 267890
Requeued flit 267824
Requeued flit 268063
Requeued flit 268043
Requeued flit 268619
Requeued flit 268851
Requeued flit 268758
Requeued flit 269239
Requeued flit 269757
Requeued flit 270103
Requeued flit 270278
Requeued flit 270188
Requeued flit 270304
Requeued flit 270193
Requeued flit 270593
Requeued flit 270847
Requeued flit 271003
Requeued flit 271057
Requeued flit 271136
Requeued flit 271548
Requeued flit 271684
Requeued flit 271048
Requeued flit 271378
Requeued flit 272272
Requeued flit 272298
Requeued flit 272532
Requeued flit 273050
Requeued flit 273448
Requeued flit 273504
Requeued flit 273858
Requeued flit 273860
Requeued flit 274734
Requeued flit 274310
Requeued flit 274772
Requeued flit 274642
Requeued flit 274844
Requeued flit 275298
Requeued flit 275376
Requeued flit 275421
Requeued flit 275628
Requeued flit 275042
Requeued flit 275840
Requeued flit 275915
Requeued flit 275928
Requeued flit 275810
Requeued flit 276123
Requeued flit 276429
Requeued flit 276132
Requeued flit 277011
Requeued flit 276978
Requeued flit 277429
Requeued flit 277393
Requeued flit 277613
Requeued flit 277468
Requeued flit 277641
Requeued flit 277760
Requeued flit 277860
Requeued flit 277767
Requeued flit 277600
Requeued flit 277722
Requeued flit 277832
Requeued flit 278130
Requeued flit 278386
Requeued flit 278693
Requeued flit 278831
Requeued flit 279190
Requeued flit 278955
Requeued flit 279358
Requeued flit 279607
Requeued flit 280068
Requeued flit 280008
Requeued flit 279891
Requeued flit 280123
Requeued flit 280316
Requeued flit 280380
Requeued flit 280664
Requeued flit 280960
Requeued flit 281032
Requeued flit 281531
Requeued flit 281988
Requeued flit 282256
Requeued flit 282413
Requeued flit 282429
Requeued flit 282550
Requeued flit 282758
Requeued flit 283239
Requeued flit 282918
Requeued flit 283132
Requeued flit 283896
Requeued flit 283999
Requeued flit 284006
Requeued flit 284338
Requeued flit 284416
Requeued flit 284230
Requeued flit 283632
Requeued flit 284584
Requeued flit 284474
Requeued flit 284677
Requeued flit 284758
Requeued flit 284760
Requeued flit 285045
Requeued flit 284858
Requeued flit 284969
Requeued flit 285107
Requeued flit 285191
Requeued flit 285443
Requeued flit 285842
Requeued flit 286277
Requeued flit 286227
Requeued flit 286034
Requeued flit 286170
Requeued flit 286788
Requeued flit 286990
Requeued flit 287023
Requeued flit 287127
Requeued flit 287873
Requeued flit 288034
Requeued flit 288668
Requeued flit 288685
Requeued flit 288690
Requeued flit 288441
Requeued flit 288831
Requeued flit 288937
Requeued flit 289468
Requeued flit 289628
Requeued flit 290274
Requeued flit 290059
Requeued flit 290555
Requeued flit 290716
Requeued flit 291168
Requeued flit 291331
Requeued flit 291031
Requeued flit 291452
Requeued flit 291785
Requeued flit 291634
Requeued flit 291788
Requeued flit 292102
Requeued flit 292226
Requeued flit 292344
Requeued flit 292823
Requeued flit 292833
Requeued flit 292975
Requeued flit 293294
Requeued flit 293158
Requeued flit 293237
Requeued flit 293426
Requeued flit 293277
Requeued flit 293690
Requeued flit 293659
Requeued flit 293799
Requeued flit 293721
Requeued flit 294071
Requeued flit 294044
Requeued flit 294139
Requeued flit 294235
Requeued flit 294181
Requeued flit 294447
Requeued flit 294213
Requeued flit 294825
Requeued flit 295059
Requeued flit 294544
Requeued flit 295372
Requeued flit 295340
Requeued flit 295469
Requeued flit 295273
Requeued flit 295453
Requeued flit 295241
Requeued flit 295676
Requeued flit 295463
Requeued flit 296014
Requeued flit 295925
Requeued flit 295984
Requeued flit 296077
Requeued flit 296030
Requeued flit 296529
Requeued flit 296602
Requeued flit 296484
Requeued flit 296819
Requeued flit 297071
Requeued flit 297206
Requeued flit 297247
Requeued flit 297343
Requeued flit 297462
Requeued flit 297385
Requeued flit 297174
Requeued flit 297576
Requeued flit 297479
Requeued flit 297510
Requeued flit 298010
Requeued flit 297922
Requeued flit 298734
Requeued flit 298852
Requeued flit 299058
Requeued flit 298712
Requeued flit 299114
Requeued flit 298685
Requeued flit 298953
Requeued flit 299390
Requeued flit 299573
Requeued flit 299500
Requeued flit 299444
Requeued flit 299823
Requeued flit 300250
Requeued flit 300193
Requeued flit 300622
Requeued flit 300286
Requeued flit 300612
Requeued flit 300505
Requeued flit 300649
Requeued flit 301016
Requeued flit 301024
Requeued flit 300805
Requeued flit 301313
Requeued flit 301446
Requeued flit 301705
Requeued flit 301889
Requeued flit 301941
Requeued flit 302300
Requeued flit 302427
Requeued flit 302451
Requeued flit 302120
Requeued flit 302297
Requeued flit 303863
Requeued flit 303506
Requeued flit 303954
Requeued flit 303963
Requeued flit 304118
Requeued flit 304209
Requeued flit 304139
Requeued flit 303950
Requeued flit 303814
Requeued flit 304358
Requeued flit 304221
Requeued flit 304223
Requeued flit 304280
Requeued flit 304920
Requeued flit 305010
Requeued flit 305091
Requeued flit 305309
Requeued flit 305485
Requeued flit 305422
Requeued flit 306145
Requeued flit 305698
Requeued flit 306620
Requeued flit 306118
Requeued flit 306728
Requeued flit 306916
Requeued flit 306972
Requeued flit 306717
Requeued flit 306968
Requeued flit 307083
Requeued flit 307252
Requeued flit 307771
Requeued flit 307674
Requeued flit 308015
Requeued flit 307888
Requeued flit 308271
Requeued flit 308409
Requeued flit 309164
Requeued flit 309124
Requeued flit 308996
Requeued flit 308882
Requeued flit 309635
Requeued flit 309734
Requeued flit 309716
Requeued flit 310012
Requeued flit 310303
Requeued flit 310197
Requeued flit 310542
Requeued flit 310527
Requeued flit 310187
Requeued flit 310744
Requeued flit 311372
Requeued flit 311390
Requeued flit 311780
Requeued flit 311916
Requeued flit 312032
Requeued flit 311895
Requeued flit 312074
Requeued flit 311750
Requeued flit 312264
Requeued flit 312593
Requeued flit 312843
Requeued flit 312563
Requeued flit 313166
Requeued flit 313197
Requeued flit 313254
Requeued flit 313454
Requeued flit 313518
Requeued flit 313408
Requeued flit 313348
Requeued flit 313525
Requeued flit 313841
Requeued flit 313787
Requeued flit 314039
Requeued flit 314314
Requeued flit 314487
Requeued flit 314871
Requeued flit 315291
Requeued flit 315249
Requeued flit 315157
Requeued flit 315829
Requeued flit 315756
Requeued flit 315916
Requeued flit 315841
Requeued flit 315951
Requeued flit 316657
Requeued flit 316807
Requeued flit 317067
Requeued flit 316800
Requeued flit 317340
Requeued flit 317456
Requeued flit 317378
Requeued flit 317136
Requeued flit 317717
Requeued flit 317236
Requeued flit 317527
Requeued flit 317903
Requeued flit 317675
Requeued flit 317955
Requeued flit 318129
Requeued flit 318161
Requeued flit 318126
Requeued flit 317907
Requeued flit 318540
Requeued flit 318945
Requeued flit 319084
Requeued flit 319272
Requeued flit 319817
Requeued flit 319791
Requeued flit 320022
Requeued flit 320158
Requeued flit 321918
Requeued flit 322317
Requeued flit 322609
Requeued flit 322337
Requeued flit 322726
Requeued flit 323006
Requeued flit 323044
Requeued flit 322644
Requeued flit 322957
Requeued flit 323166
Requeued flit 322696
Requeued flit 323002
Requeued flit 323329
Requeued flit 323533
Requeued flit 324010
Requeued flit 324284
Requeued flit 324419
Requeued flit 324501
Requeued flit 324600
Requeued flit 325185
Requeued flit 325207
Requeued flit 325622
Requeued flit 325527
Requeued flit 325617
Requeued flit 325615
Requeued flit 326098
Requeued flit 326143
Requeued flit 326436
Requeued flit 326829
Requeued flit 326754
Requeued flit 327624
Requeued flit 327637
Requeued flit 328136
Requeued flit 328315
Requeued flit 328304
Requeued flit 328392
Requeued flit 328940
Requeued flit 328965
Requeued flit 328941
Requeued flit 328960
Requeued flit 329499
Requeued flit 329677
Requeued flit 329735
Requeued flit 329953
Requeued flit 329367
Requeued flit 329918
Requeued flit 330165
Requeued flit 330086
Requeued flit 330056
Requeued flit 330148
Requeued flit 330358
Requeued flit 330572
Requeued flit 329980
Requeued flit 330715
Requeued flit 330545
Requeued flit 330721
Requeued flit 330740
Requeued flit 330613
Requeued flit 330938
Requeued flit 331044
Requeued flit 331634
Requeued flit 331594
Requeued flit 331705
Requeued flit 331910
Requeued flit 332307
Requeued flit 332523
Requeued flit 332378
Requeued flit 333172
Requeued flit 333149
Requeued flit 333575
Requeued flit 333869
Requeued flit 333913
Requeued flit 333771
Requeued flit 333752
Requeued flit 333955
Requeued flit 333749
Requeued flit 334757
Requeued flit 334802
Requeued flit 334548
Requeued flit 334577
Requeued flit 334812
Requeued flit 334833
Requeued flit 334945
Requeued flit 335096
Requeued flit 335296
Requeued flit 335043
Requeued flit 335706
Requeued flit 335751
Requeued flit 336189
Requeued flit 335876
Requeued flit 336273
Requeued flit 336289
Requeued flit 336885
Requeued flit 336736
Requeued flit 336735
Requeued flit 336777
Requeued flit 337144
Requeued flit 337369
Requeued flit 337497
Requeued flit 337878
Requeued flit 337814
Requeued flit 338105
Requeued flit 338412
Requeued flit 338604
Requeued flit 339411
Requeued flit 339154
Requeued flit 339460
Requeued flit 339153
Requeued flit 339588
Requeued flit 339767
Requeued flit 339866
Requeued flit 340756
Requeued flit 341404
Requeued flit 341661
Requeued flit 341678
Requeued flit 341598
Requeued flit 341837
Requeued flit 342338
Requeued flit 342330
Requeued flit 342360
Requeued flit 342790
Requeued flit 342795
Requeued flit 342996
Requeued flit 342931
Requeued flit 343379
Requeued flit 343686
Requeued flit 343606
Requeued flit 343614
Requeued flit 343714
Requeued flit 343837
Requeued flit 344482
Requeued flit 344516
Requeued flit 344631
Requeued flit 344793
Requeued flit 344762
Requeued flit 345188
Requeued flit 345135
Requeued flit 345150
Requeued flit 345582
Requeued flit 346477
Requeued flit 346649
Requeued flit 346439
Requeued flit 347016
Requeued flit 347054
Requeued flit 347053
Requeued flit 347194
Requeued flit 347153
Requeued flit 347215
Requeued flit 347015
Requeued flit 347705
Requeued flit 347872
Requeued flit 347994
Requeued flit 347926
Requeued flit 347706
Requeued flit 348200
Requeued flit 348338
Requeued flit 348747
Requeued flit 348660
Requeued flit 348826
Requeued flit 349483
Requeued flit 349611
Requeued flit 349907
Requeued flit 349922
Requeued flit 349690
Requeued flit 350111
Requeued flit 350495
Requeued flit 350498
Requeued flit 350809
Requeued flit 350969
Requeued flit 351042
Requeued flit 350796
Requeued flit 350937
Requeued flit 351871
Requeued flit 351884
Requeued flit 351907
Requeued flit 352136
Requeued flit 351929
Requeued flit 352118
Requeued flit 352206
Requeued flit 352467
Requeued flit 352540
Requeued flit 352212
Requeued flit 352389
Requeued flit 352491
Requeued flit 352441
Requeued flit 352700
Requeued flit 352992
Requeued flit 353088
Requeued flit 353379
Requeued flit 353278
Requeued flit 353391
Requeued flit 353678
Requeued flit 354174
Requeued flit 354290
Requeued flit 353782
Requeued flit 353879
Requeued flit 354492
Requeued flit 354276
Requeued flit 354748
Requeued flit 354657
Requeued flit 354778
Requeued flit 354933
Requeued flit 355106
Requeued flit 355363
Requeued flit 355450
Requeued flit 355741
Requeued flit 356120
Requeued flit 355805
Requeued flit 355803
Requeued flit 356237
Requeued flit 356402
Requeued flit 356392
Requeued flit 356834
Requeued flit 356928
Requeued flit 357060
Requeued flit 357256
Requeued flit 357316
Requeued flit 357220
Requeued flit 357197
Requeued flit 357778
Requeued flit 357813
Requeued flit 357692
Requeued flit 358039
Requeued flit 358189
Requeued flit 359216
Requeued flit 359541
Requeued flit 359618
Requeued flit 359611
Requeued flit 359814
Requeued flit 359909
Requeued flit 360266
Requeued flit 360224
Requeued flit 360527
Requeued flit 360599
Requeued flit 360517
Requeued flit 360830
Requeued flit 360666
Requeued flit 360601
Requeued flit 361773
Requeued flit 361823
Requeued flit 362126
Requeued flit 362175
Requeued flit 362647
Requeued flit 363412
Requeued flit 363659
Requeued flit 364154
Requeued flit 364215
Requeued flit 363742
Requeued flit 364120
Requeued flit 364325
Requeued flit 364932
Requeued flit 364939
Requeued flit 365259
Requeued flit 365648
Requeued flit 365865
Requeued flit 366014
Requeued flit 366182
Requeued flit 365952
Requeued flit 366307
Requeued flit 366749
Requeued flit 366550
Requeued flit 367028
Requeued flit 366899
Requeued flit 367553
Requeued flit 367611
Requeued flit 368028
Requeued flit 368135
Requeued flit 369060
Requeued flit 369120
Requeued flit 369168
Requeued flit 369318
Requeued flit 369322
Requeued flit 369487
Requeued flit 369550
Requeued flit 369562
Requeued flit 369386
Requeued flit 369830
Requeued flit 369975
Requeued flit 369258
Requeued flit 370143
Requeued flit 369959
Requeued flit 370222
Requeued flit 370017
Requeued flit 370392
Requeued flit 370396
Requeued flit 370595
Requeued flit 371023
Requeued flit 371171
Requeued flit 371286
Requeued flit 371115
Requeued flit 371363
Requeued flit 371348
Requeued flit 371963
Requeued flit 372054
Requeued flit 372162
Requeued flit 372291
Requeued flit 372087
Requeued flit 372108
Requeued flit 372095
Requeued flit 372454
Requeued flit 372881
Requeued flit 373047
Requeued flit 373326
Requeued flit 373146
Requeued flit 373459
Requeued flit 373812
Requeued flit 373814
Requeued flit 374130
Requeued flit 374125
Requeued flit 373908
Requeued flit 374059
Requeued flit 374663
Requeued flit 374292
Requeued flit 374874
Requeued flit 374830
Requeued flit 375066
Requeued flit 375303
Requeued flit 375463
Requeued flit 375668
Requeued flit 376067
Requeued flit 376611
Requeued flit 376523
Requeued flit 376473
Requeued flit 376951
Requeued flit 377489
Requeued flit 377782
Requeued flit 378021
Requeued flit 377687
Requeued flit 378176
Requeued flit 378337
Requeued flit 378384
Requeued flit 378243
Requeued flit 378041
Requeued flit 378460
Requeued flit 378528
Requeued flit 378182
Requeued flit 378593
Requeued flit 378641
Requeued flit 378851
Requeued flit 379066
Requeued flit 379444
Requeued flit 379245
Requeued flit 379645
Requeued flit 379660
Requeued flit 379499
Requeued flit 379859
Requeued flit 380203
Requeued flit 380143
Requeued flit 380532
Requeued flit 380509
Requeued flit 380452
Requeued flit 380778
Requeued flit 381317
Requeued flit 381313
Requeued flit 381726
Requeued flit 381932
Requeued flit 382167
Requeued flit 382270
Requeued flit 382534
Requeued flit 382639
Requeued flit 382452
Requeued flit 382612
Requeued flit 382848
Requeued flit 382895
Requeued flit 382768
Class 0:
Packet latency average = 22.1669
	minimum = 5
	maximum = 66
Network latency average = 22.1669
	minimum = 5
	maximum = 66
Slowest packet = 175316
Flit latency average = 22.1669
	minimum = 5
	maximum = 66
Slowest flit = 175316
Fragmentation average = 0
	minimum = 0
	maximum = 0
Injected packet rate average = 0.299666
	minimum = 0.29235 (at node 25)
	maximum = 0.3079 (at node 51)
Accepted packet rate average = 0.299352
	minimum = 0.29015 (at node 21)
	maximum = 0.3082 (at node 28)
Injected flit rate average = 0.299666
	minimum = 0.29235 (at node 25)
	maximum = 0.3079 (at node 51)
Accepted flit rate average= 0.299352
	minimum = 0.29015 (at node 21)
	maximum = 0.3082 (at node 28)
Injected packet length average = 1
Accepted packet length average = 1
Total in-flight flits = 402 (0 measured)
latency change    = 0.000213535
throughput change = 0.00168332
Requeued flit 383517
Requeued flit 383081
Requeued flit 384131
Requeued flit 384319
Requeued flit 384570
Requeued flit 384838
Requeued flit 384823
Requeued flit 385121
Requeued flit 385186
Requeued flit 385024
Requeued flit 385275
Requeued flit 385031
Requeued flit 385092
Requeued flit 385521
Requeued flit 385685
Requeued flit 385794
Requeued flit 385796
Requeued flit 385684
Requeued flit 385993
Requeued flit 386118
Requeued flit 386191
Requeued flit 386108
Requeued flit 386594
Requeued flit 386607
Requeued flit 386757
Requeued flit 386802
Requeued flit 387269
Requeued flit 387644
Requeued flit 387555
Requeued flit 387479
Requeued flit 387959
Requeued flit 388679
Requeued flit 388639
Requeued flit 388578
Requeued flit 388737
Requeued flit 389047
Requeued flit 389226
Requeued flit 389245
Requeued flit 389661
Requeued flit 389987
Requeued flit 390313
Requeued flit 390412
Requeued flit 390339
Requeued flit 391041
Requeued flit 391173
Requeued flit 390873
Requeued flit 391054
Requeued flit 391640
Requeued flit 391859
Requeued flit 391954
Requeued flit 392265
Requeued flit 391968
Requeued flit 392280
Requeued flit 392647
Requeued flit 392727
Requeued flit 393202
Requeued flit 392923
Requeued flit 393394
Requeued flit 393566
Requeued flit 393681
Requeued flit 394057
Requeued flit 394270
Requeued flit 394599
Requeued flit 394457
Requeued flit 394615
Requeued flit 394833
Requeued flit 394840
Requeued flit 394974
Requeued flit 395271
Requeued flit 395282
Requeued flit 395503
Requeued flit 395577
Requeued flit 395611
Requeued flit 396218
Requeued flit 396384
Requeued flit 396318
Requeued flit 396635
Requeued flit 396623
Requeued flit 396827
Requeued flit 397152
Requeued flit 397116
Requeued flit 397218
Requeued flit 397601
Requeued flit 397407
Requeued flit 397355
Requeued flit 397470
Requeued flit 398265
Requeued flit 398120
Requeued flit 398376
Requeued flit 398234
Requeued flit 398583
Requeued flit 398620
Requeued flit 399075
Requeued flit 399629
Requeued flit 399640
Requeued flit 399980
Requeued flit 399923
Requeued flit 400288
Requeued flit 400485
Requeued flit 400460
Requeued flit 400586
Requeued flit 400951
Requeued flit 400425
Requeued flit 401298
Requeued flit 401257
Requeued flit 401237
Requeued flit 401390
Requeued flit 401297
Requeued flit 401433
Requeued flit 401508
Requeued flit 401491
Requeued flit 401702
Requeued flit 401890
Requeued flit 401781
Requeued flit 401947
Requeued flit 401876
Requeued flit 402052
Requeued flit 402021
Requeued flit 402950
Requeued flit 403339
Requeued flit 403530
Requeued flit 404032
Requeued flit 404038
Requeued flit 404234
Requeued flit 404172
Requeued flit 404216
Requeued flit 404426
Requeued flit 404488
Requeued flit 404757
Requeued flit 405389
Requeued flit 405211
Requeued flit 405533
Requeued flit 405590
Requeued flit 405573
Requeued flit 405273
Requeued flit 405756
Requeued flit 406135
Requeued flit 405829
Requeued flit 405850
Requeued flit 406253
Requeued flit 406930
Requeued flit 407267
Requeued flit 407381
Requeued flit 407384
Requeued flit 407901
Requeued flit 408094
Requeued flit 408227
Requeued flit 408359
Requeued flit 408389
Requeued flit 408474
Requeued flit 408588
Requeued flit 409212
Requeued flit 409340
Requeued flit 409423
Requeued flit 409880
Requeued flit 410340
Requeued flit 410610
Requeued flit 410583
Requeued flit 411101
Requeued flit 411247
Requeued flit 411399
Requeued flit 411475
Requeued flit 411540
Requeued flit 411432
Requeued flit 412200
Requeued flit 412543
Requeued flit 412565
Requeued flit 413183
Requeued flit 413558
Requeued flit 413643
Requeued flit 413806
Requeued flit 413965
Requeued flit 413815
Requeued flit 414370
Requeued flit 414459
Requeued flit 414620
Requeued flit 414543
Requeued flit 414756
Requeued flit 414839
Requeued flit 415037
Requeued flit 414956
Requeued flit 414876
Requeued flit 415308
Requeued flit 415832
Requeued flit 415289
Requeued flit 416002
Requeued flit 415874
Requeued flit 416105
Requeued flit 416338
Requeued flit 416454
Requeued flit 416671
Requeued flit 417245
Requeued flit 417184
Requeued flit 417441
Requeued flit 417767
Requeued flit 417909
Requeued flit 418340
Requeued flit 418951
Requeued flit 418883
Requeued flit 419179
Requeued flit 419310
Requeued flit 419216
Requeued flit 420156
Requeued flit 420331
Requeued flit 420342
Requeued flit 420793
Requeued flit 420813
Requeued flit 420955
Requeued flit 420952
Requeued flit 420958
Requeued flit 420637
Requeued flit 421419
Requeued flit 421668
Requeued flit 421772
Requeued flit 421780
Requeued flit 421995
Requeued flit 422246
Requeued flit 422324
Requeued flit 422582
Requeued flit 422634
Requeued flit 422843
Requeued flit 422630
Requeued flit 423347
Requeued flit 423488
Requeued flit 423587
Requeued flit 423517
Requeued flit 423890
Requeued flit 423940
Requeued flit 423894
Requeued flit 423806
Requeued flit 424099
Requeued flit 425215
Requeued flit 425586
Requeued flit 425675
Requeued flit 425982
Requeued flit 425905
Requeued flit 426092
Requeued flit 426112
Requeued flit 426554
Requeued flit 426780
Requeued flit 426774
Requeued flit 426933
Requeued flit 426856
Requeued flit 427193
Requeued flit 427432
Requeued flit 427393
Requeued flit 427373
Requeued flit 427406
Requeued flit 427769
Requeued flit 427538
Requeued flit 427620
Requeued flit 428305
Requeued flit 428591
Requeued flit 429083
Requeued flit 429360
Requeued flit 429491
Requeued flit 429300
Requeued flit 429558
Requeued flit 429271
Requeued flit 431138
Requeued flit 431131
Requeued flit 431090
Requeued flit 431664
Requeued flit 431402
Requeued flit 431775
Requeued flit 431580
Requeued flit 432142
Requeued flit 431624
Requeued flit 432145
Requeued flit 431756
Requeued flit 432618
Requeued flit 432831
Requeued flit 432746
Requeued flit 432744
Requeued flit 433070
Requeued flit 433020
Requeued flit 433280
Requeued flit 433514
Requeued flit 433601
Requeued flit 433727
Requeued flit 433679
Requeued flit 433760
Requeued flit 433687
Requeued flit 433814
Requeued flit 434099
Requeued flit 434197
Requeued flit 434248
Requeued flit 434242
Requeued flit 434231
Requeued flit 434753
Requeued flit 434444
Requeued flit 435304
Requeued flit 435456
Requeued flit 435887
Requeued flit 436035
Requeued flit 436054
Requeued flit 436275
Requeued flit 436202
Requeued flit 436831
Requeued flit 436838
Requeued flit 436868
Requeued flit 436886
Requeued flit 437334
Requeued flit 437067
Requeued flit 437072
Requeued flit 437334
Requeued flit 437634
Requeued flit 437791
Requeued flit 438120
Requeued flit 438418
Requeued flit 438479
Requeued flit 438771
Requeued flit 438494
Requeued flit 438940
Requeued flit 438868
Requeued flit 438968
Requeued flit 439247
Requeued flit 439385
Requeued flit 439480
Requeued flit 439861
Requeued flit 439384
Requeued flit 439886
Requeued flit 440122
Requeued flit 440111
Requeued flit 440318
Requeued flit 440457
Requeued flit 440653
Requeued flit 440748
Requeued flit 440836
Requeued flit 441374
Requeued flit 441128
Requeued flit 441356
Requeued flit 441510
Requeued flit 441502
Requeued flit 441389
Requeued flit 441571
Requeued flit 441801
Requeued flit 441968
Requeued flit 441976
Requeued flit 442222
Requeued flit 442462
Requeued flit 442399
Requeued flit 442600
Requeued flit 442978
Requeued flit 442761
Requeued flit 443045
Requeued flit 443145
Requeued flit 443348
Requeued flit 443797
Requeued flit 443409
Requeued flit 443988
Requeued flit 443774
Requeued flit 444186
Requeued flit 444784
Requeued flit 444661
Requeued flit 444357
Requeued flit 444740
Requeued flit 444840
Requeued flit 445017
Requeued flit 444487
Requeued flit 445445
Requeued flit 445465
Requeued flit 445515
Requeued flit 445996
Requeued flit 446225
Requeued flit 446889
Requeued flit 447056
Requeued flit 447056
Requeued flit 447550
Requeued flit 447580
Requeued flit 447678
Requeued flit 448013
Requeued flit 448214
Requeued flit 448246
Requeued flit 448433
Requeued flit 448558
Requeued flit 448580
Requeued flit 448536
Requeued flit 448370
Requeued flit 448846
Requeued flit 448727
Requeued flit 449343
Requeued flit 449362
Requeued flit 449800
Requeued flit 449791
Requeued flit 449982
Requeued flit 450419
Requeued flit 450584
Requeued flit 450893
Requeued flit 450762
Requeued flit 451166
Requeued flit 450904
Requeued flit 451293
Requeued flit 451395
Requeued flit 451290
Requeued flit 451192
Requeued flit 451420
Requeued flit 451724
Requeued flit 452066
Requeued flit 451898
Requeued flit 452060
Requeued flit 452371
Requeued flit 452376
Requeued flit 452442
Requeued flit 452301
Requeued flit 452666
Requeued flit 452314
Requeued flit 452938
Requeued flit 453221
Requeued flit 453251
Requeued flit 453616
Requeued flit 453884
Requeued flit 454070
Requeued flit 454415
Requeued flit 454339
Requeued flit 454346
Requeued flit 454616
Requeued flit 454589
Requeued flit 454517
Requeued flit 454658
Requeued flit 454569
Requeued flit 455083
Requeued flit 455392
Requeued flit 455229
Requeued flit 455181
Requeued flit 455745
Requeued flit 455521
Requeued flit 455767
Requeued flit 456166
Requeued flit 456655
Requeued flit 456897
Requeued flit 456672
Requeued flit 457150
Requeued flit 456776
Requeued flit 456793
Requeued flit 457208
Requeued flit 457587
Requeued flit 457697
Requeued flit 457618
Requeued flit 457669
Requeued flit 457989
Requeued flit 457976
Requeued flit 458066
Requeued flit 458009
Requeued flit 457942
Requeued flit 458102
Requeued flit 458406
Requeued flit 458452
Requeued flit 458215
Requeued flit 458304
Requeued flit 458568
Requeued flit 458597
Requeued flit 458690
Requeued flit 459224
Requeued flit 459025
Requeued flit 459232
Requeued flit 459660
Requeued flit 460041
Requeued flit 459859
Requeued flit 460441
Requeued flit 460248
Requeued flit 460519
Requeued flit 461009
Requeued flit 461079
Requeued flit 460808
Requeued flit 461346
Requeued flit 461143
Requeued flit 461724
Requeued flit 461650
Requeued flit 462102
Requeued flit 462110
Requeued flit 462383
Requeued flit 462462
Requeued flit 462516
Requeued flit 462238
Requeued flit 462560
Requeued flit 462476
Requeued flit 462850
Requeued flit 463088
Requeued flit 463032
Requeued flit 463444
Requeued flit 463239
Requeued flit 463078
Requeued flit 463375
Requeued flit 463374
Requeued flit 463623
Requeued flit 463746
Requeued flit 463476
Requeued flit 463446
Requeued flit 463561
Requeued flit 463598
Requeued flit 463805
Requeued flit 463943
Requeued flit 464496
Requeued flit 464511
Requeued flit 464505
Requeued flit 464645
Requeued flit 464953
Requeued flit 465189
Requeued flit 465404
Requeued flit 466015
Requeued flit 466235
Requeued flit 465895
Requeued flit 466341
Requeued flit 466455
Requeued flit 466752
Requeued flit 466377
Requeued flit 466700
Requeued flit 466959
Requeued flit 466720
Requeued flit 467567
Requeued flit 467645
Requeued flit 467428
Requeued flit 467670
Requeued flit 467693
Requeued flit 467885
Requeued flit 468298
Requeued flit 468066
Requeued flit 468614
Requeued flit 468622
Requeued flit 468786
Requeued flit 468862
Requeued flit 469061
Requeued flit 469601
Requeued flit 469823
Requeued flit 469996
Requeued flit 469554
Requeued flit 469928
Requeued flit 469933
Requeued flit 470225
Requeued flit 470505
Requeued flit 470558
Requeued flit 470746
Requeued flit 471094
Requeued flit 470694
Requeued flit 471197
Requeued flit 471891
Requeued flit 471847
Requeued flit 472143
Requeued flit 472134
Requeued flit 471899
Requeued flit 472324
Requeued flit 472615
Requeued flit 472838
Requeued flit 473005
Requeued flit 473788
Requeued flit 473480
Requeued flit 474021
Requeued flit 474533
Requeued flit 474615
Requeued flit 474799
Requeued flit 474782
Requeued flit 475010
Requeued flit 475036
[...]
Requeued flit 1023572
Requeued flit 1023522
Requeued flit 1023697
Requeued flit 1023924
Requeued flit 1024024
Requeued flit 1023617
Requeued flit 1024412
Requeued flit 1024327
Requeued flit 1024039
Requeued flit 1024126
Requeued flit 1024884
Requeued flit 1024901
Requeued flit 1024467
Requeued flit 1025097
Requeued flit 1025567
Requeued flit 1025482
Requeued flit 1025580
Requeued flit 1026019
Requeued flit 1026170
Requeued flit 1026194
Requeued flit 1026312
Requeued flit 1026324
Requeued flit 1026382
Requeued flit 1026155
Requeued flit 1026256
Requeued flit 1026792
Requeued flit 1026996
Requeued flit 1027066
Requeued flit 1027132
Requeued flit 1027480
Requeued flit 1027333
Requeued flit 1027400
Requeued flit 1027656
Requeued flit 1027818
Requeued flit 1027894
Requeued flit 1028155
Requeued flit 1028086
Requeued flit 1028214
Requeued flit 1028194
Requeued flit 1028375
Requeued flit 1028366
Requeued flit 1028725
Requeued flit 1028763
Requeued flit 1028823
Requeued flit 1029258
Requeued flit 1029095
Requeued flit 1029398
Requeued flit 1029168
Requeued flit 1029501
Requeued flit 1029577
Requeued flit 1030222
Requeued flit 1030559
Requeued flit 1030647
Requeued flit 1030531
Requeued flit 1030531
Requeued flit 1030757
Requeued flit 1031352
Requeued flit 1031299
Requeued flit 1031510
Requeued flit 1031326
Requeued flit 1031644
Requeued flit 1031814
Requeued flit 1031917
Requeued flit 1032115
Requeued flit 1032199
Requeued flit 1032063
Requeued flit 1032446
Requeued flit 1032426
Requeued flit 1033037
Requeued flit 1033106
Requeued flit 1033780
Requeued flit 1033851
Requeued flit 1034564
Requeued flit 1034701
Requeued flit 1034912
Requeued flit 1034978
Requeued flit 1034683
Requeued flit 1035293
Requeued flit 1035162
Requeued flit 1035397
Requeued flit 1035430
Requeued flit 1035546
Requeued flit 1035502
Requeued flit 1035580
Requeued flit 1036227
Requeued flit 1036653
Requeued flit 1036696
Requeued flit 1036757
Requeued flit 1036895
Requeued flit 1037284
Requeued flit 1037284
Requeued flit 1037586
Requeued flit 1037776
Requeued flit 1037814
Requeued flit 1037873
Requeued flit 1037892
Requeued flit 1037824
Requeued flit 1038069
Requeued flit 1038197
Requeued flit 1038259
Requeued flit 1038673
Requeued flit 1038859
Requeued flit 1039500
Requeued flit 1039526
Requeued flit 1039465
Requeued flit 1039445
Requeued flit 1039640
Requeued flit 1039406
Requeued flit 1039422
Requeued flit 1040694
Requeued flit 1040605
Requeued flit 1040493
Requeued flit 1040724
Requeued flit 1040805
Requeued flit 1041212
Requeued flit 1040883
Requeued flit 1041332
Requeued flit 1042138
Requeued flit 1042093
Requeued flit 1042428
Requeued flit 1042148
Requeued flit 1042657
Requeued flit 1042741
Requeued flit 1043163
Requeued flit 1043058
Requeued flit 1043511
Requeued flit 1043845
Requeued flit 1044220
Requeued flit 1044460
Requeued flit 1044916
Requeued flit 1045321
Requeued flit 1045393
Requeued flit 1045500
Requeued flit 1045706
Requeued flit 1045672
Requeued flit 1045838
Requeued flit 1046331
Requeued flit 1046192
Requeued flit 1046585
Requeued flit 1046712
Requeued flit 1046789
Requeued flit 1046879
Requeued flit 1046699
Requeued flit 1046955
Requeued flit 1047096
Requeued flit 1047210
Requeued flit 1047234
Requeued flit 1047535
Requeued flit 1047556
Requeued flit 1047771
Requeued flit 1047884
Requeued flit 1047887
Requeued flit 1047849
Requeued flit 1048024
Requeued flit 1048090
Requeued flit 1048225
Requeued flit 1048465
Requeued flit 1048648
Requeued flit 1048869
Requeued flit 1049102
Requeued flit 1049214
Requeued flit 1049008
Requeued flit 1049102
Requeued flit 1049340
Requeued flit 1049760
Requeued flit 1050110
Requeued flit 1050010
Requeued flit 1050234
Requeued flit 1050319
Requeued flit 1050343
Requeued flit 1050931
Requeued flit 1050982
Requeued flit 1051010
Requeued flit 1052188
Requeued flit 1052275
Requeued flit 1052136
Requeued flit 1052377
Requeued flit 1052612
Requeued flit 1052464
Requeued flit 1052592
Requeued flit 1052508
Requeued flit 1052968
Requeued flit 1053061
Requeued flit 1053271
Requeued flit 1053541
Requeued flit 1053525
Requeued flit 1053616
Requeued flit 1054101
Requeued flit 1054162
Requeued flit 1053940
Requeued flit 1054431
Requeued flit 1054498
Requeued flit 1054663
Requeued flit 1055307
Requeued flit 1055474
Requeued flit 1055690
Requeued flit 1055677
Requeued flit 1056410
Requeued flit 1056077
Requeued flit 1056243
Requeued flit 1056524
Requeued flit 1057270
Requeued flit 1057734
Requeued flit 1057525
Requeued flit 1057842
Requeued flit 1057954
Requeued flit 1058078
Requeued flit 1058124
Requeued flit 1058007
Requeued flit 1058449
Requeued flit 1058504
Requeued flit 1058329
Requeued flit 1058597
Requeued flit 1058613
Requeued flit 1058495
Requeued flit 1058805
Requeued flit 1058902
Requeued flit 1058944
Requeued flit 1058888
Requeued flit 1059082
Requeued flit 1059450
Requeued flit 1058995
Requeued flit 1059785
Requeued flit 1059542
Requeued flit 1059693
Requeued flit 1059443
Requeued flit 1059889
Requeued flit 1059518
Requeued flit 1060242
Requeued flit 1060695
Requeued flit 1060677
Requeued flit 1061029
Requeued flit 1061166
Requeued flit 1061177
Requeued flit 1061203
Requeued flit 1062115
Requeued flit 1062207
Requeued flit 1062020
Requeued flit 1062825
Requeued flit 1063033
Requeued flit 1063287
Requeued flit 1063203
Requeued flit 1064156
Requeued flit 1064778
Requeued flit 1064381
Requeued flit 1064783
Requeued flit 1064965
Requeued flit 1065272
Requeued flit 1065862
Requeued flit 1065873
Requeued flit 1065542
Requeued flit 1066046
Requeued flit 1066483
Requeued flit 1067015
Requeued flit 1067090
Requeued flit 1067059
Requeued flit 1067216
Requeued flit 1067369
Requeued flit 1067761
Requeued flit 1067920
Requeued flit 1068028
Requeued flit 1068107
Requeued flit 1068438
Requeued flit 1068484
Requeued flit 1068785
Requeued flit 1069051
Requeued flit 1069264
Requeued flit 1069420
Requeued flit 1069307
Requeued flit 1069526
Requeued flit 1069419
Requeued flit 1070020
Requeued flit 1070133
Requeued flit 1069925
Requeued flit 1070233
Requeued flit 1070917
Requeued flit 1071064
Requeued flit 1071120
Requeued flit 1071162
Requeued flit 1071078
Requeued flit 1071250
Requeued flit 1071628
Requeued flit 1071719
Requeued flit 1071477
Requeued flit 1071779
Requeued flit 1071916
Requeued flit 1071915
Requeued flit 1071921
Requeued flit 1072184
Requeued flit 1072589
Requeued flit 1072446
Requeued flit 1073021
Requeued flit 1073033
Requeued flit 1073042
Requeued flit 1073159
Requeued flit 1073139
Requeued flit 1073247
Requeued flit 1073169
Requeued flit 1073477
Requeued flit 1073448
Requeued flit 1073922
Requeued flit 1073705
Requeued flit 1074460
Requeued flit 1074440
Requeued flit 1074410
Requeued flit 1074694
Requeued flit 1074749
Requeued flit 1074489
Requeued flit 1074717
Requeued flit 1074924
Requeued flit 1075105
Requeued flit 1074539
Requeued flit 1075236
Requeued flit 1075536
Requeued flit 1075504
Requeued flit 1075486
Requeued flit 1075803
Requeued flit 1075487
Requeued flit 1075710
Requeued flit 1075893
Requeued flit 1076211
Requeued flit 1076159
Requeued flit 1076163
Requeued flit 1076414
Requeued flit 1077241
Requeued flit 1078715
Requeued flit 1078599
Requeued flit 1078784
Requeued flit 1079068
Requeued flit 1079070
Requeued flit 1079207
Requeued flit 1079628
Requeued flit 1079478
Requeued flit 1079636
Requeued flit 1079765
Requeued flit 1079946
Requeued flit 1080030
Requeued flit 1079840
Requeued flit 1080107
Requeued flit 1080607
Requeued flit 1080574
Requeued flit 1080574
Requeued flit 1080953
Requeued flit 1081097
Requeued flit 1081538
Requeued flit 1081597
Requeued flit 1081745
Requeued flit 1081892
Requeued flit 1081918
Requeued flit 1081977
Requeued flit 1082090
Requeued flit 1081920
Requeued flit 1081988
Requeued flit 1082276
Requeued flit 1082301
Requeued flit 1082354
Requeued flit 1082966
Requeued flit 1083367
Requeued flit 1083867
Requeued flit 1083961
Requeued flit 1083617
Requeued flit 1084292
Requeued flit 1084345
Requeued flit 1084544
Requeued flit 1084551
Requeued flit 1084803
Requeued flit 1084680
Requeued flit 1084982
Requeued flit 1084868
Requeued flit 1085024
Requeued flit 1085015
Requeued flit 1085333
Requeued flit 1085361
Requeued flit 1085535
Requeued flit 1085987
Requeued flit 1085638
Requeued flit 1086008
Requeued flit 1085803
Requeued flit 1086157
Requeued flit 1086235
Requeued flit 1086748
Requeued flit 1086300
Requeued flit 1086744
Requeued flit 1086692
Requeued flit 1086945
Requeued flit 1086665
Requeued flit 1086637
Requeued flit 1086713
Requeued flit 1087183
Requeued flit 1087788
Requeued flit 1088565
Requeued flit 1088739
Requeued flit 1088295
Requeued flit 1089010
Requeued flit 1088986
Requeued flit 1089371
Requeued flit 1089463
Requeued flit 1089178
Requeued flit 1089591
Requeued flit 1089769
Requeued flit 1090320
Requeued flit 1090476
Requeued flit 1090460
Requeued flit 1090726
Requeued flit 1090955
Requeued flit 1090997
Requeued flit 1090723
Requeued flit 1091122
Requeued flit 1091256
Requeued flit 1091085
Requeued flit 1091339
Requeued flit 1091224
Requeued flit 1091514
Requeued flit 1091550
Requeued flit 1091595
Requeued flit 1092129
Requeued flit 1092352
Requeued flit 1092593
Requeued flit 1092350
Requeued flit 1092364
Requeued flit 1092618
Requeued flit 1092614
Requeued flit 1092832
Requeued flit 1092879
Requeued flit 1093591
Requeued flit 1093517
Requeued flit 1094280
Requeued flit 1094391
Requeued flit 1094127
Requeued flit 1094381
Requeued flit 1094657
Requeued flit 1095337
Requeued flit 1095154
Requeued flit 1095943
Requeued flit 1095856
Requeued flit 1096029
Requeued flit 1096079
Requeued flit 1096742
Requeued flit 1096767
Requeued flit 1096851
Requeued flit 1096997
Requeued flit 1096896
Requeued flit 1097287
Requeued flit 1097306
Requeued flit 1097685
Requeued flit 1098450
Requeued flit 1098310
Requeued flit 1098242
Requeued flit 1098492
Requeued flit 1098885
Requeued flit 1099301
Requeued flit 1099680
Requeued flit 1099552
Requeued flit 1100147
Requeued flit 1100253
Requeued flit 1100091
Requeued flit 1100038
Requeued flit 1100439
Requeued flit 1100649
Requeued flit 1100461
Requeued flit 1100946
Requeued flit 1101500
Requeued flit 1101596
Requeued flit 1101575
Requeued flit 1101429
Requeued flit 1101346
Requeued flit 1101789
Requeued flit 1101675
Requeued flit 1101504
Requeued flit 1101493
Requeued flit 1101900
Requeued flit 1102257
Requeued flit 1102233
Requeued flit 1102708
Requeued flit 1102541
Requeued flit 1102706
Requeued flit 1103300
Requeued flit 1103569
Requeued flit 1103671
Requeued flit 1103697
Requeued flit 1103981
Requeued flit 1103928
Requeued flit 1103633
Requeued flit 1104383
Requeued flit 1104658
Requeued flit 1104715
Requeued flit 1104891
Requeued flit 1104867
Requeued flit 1104956
Requeued flit 1105125
Requeued flit 1104878
Requeued flit 1105261
Requeued flit 1105493
Requeued flit 1105324
Requeued flit 1105489
Requeued flit 1106559
Requeued flit 1106586
Requeued flit 1106329
Requeued flit 1106581
Requeued flit 1106602
Requeued flit 1107484
Requeued flit 1107883
Requeued flit 1107700
Requeued flit 1108212
Requeued flit 1108308
Requeued flit 1108183
Requeued flit 1108373
Requeued flit 1108349
Requeued flit 1107883
Requeued flit 1108410
Requeued flit 1108346
Requeued flit 1108180
Requeued flit 1108688
Requeued flit 1108706
Requeued flit 1108260
Requeued flit 1109087
Requeued flit 1109324
Requeued flit 1109549
Requeued flit 1109624
Requeued flit 1109823
Requeued flit 1110053
Requeued flit 1110166
Requeued flit 1110457
Requeued flit 1110546
Requeued flit 1110706
Requeued flit 1110829
Requeued flit 1110729
Requeued flit 1110644
Requeued flit 1110782
Requeued flit 1110874
Requeued flit 1111126
Requeued flit 1111126
Requeued flit 1111611
Requeued flit 1111541
Requeued flit 1111813
Requeued flit 1112056
Requeued flit 1112276
Requeued flit 1112033
Requeued flit 1112624
Requeued flit 1112520
Requeued flit 1112643
Requeued flit 1113025
Requeued flit 1113266
Requeued flit 1113529
Requeued flit 1113716
Requeued flit 1113868
Requeued flit 1113974
Requeued flit 1113790
Requeued flit 1114021
Requeued flit 1113767
Requeued flit 1113870
Requeued flit 1114391
Requeued flit 1114675
Requeued flit 1114483
Requeued flit 1115075
Requeued flit 1115118
Requeued flit 1115456
Requeued flit 1115819
Requeued flit 1116209
Requeued flit 1116395
Requeued flit 1116386
Requeued flit 1116355
Requeued flit 1116991
Requeued flit 1116997
Requeued flit 1116788
Requeued flit 1117344
Requeued flit 1117248
Requeued flit 1117904
Requeued flit 1117939
Requeued flit 1118245
Requeued flit 1118088
Requeued flit 1118590
Requeued flit 1118645
Requeued flit 1118783
Requeued flit 1118914
Requeued flit 1119177
Requeued flit 1119504
Requeued flit 1119838
Requeued flit 1119995
Requeued flit 1119825
Requeued flit 1119870
Requeued flit 1120184
Requeued flit 1120759
Requeued flit 1120790
Requeued flit 1121062
Requeued flit 1120961
Requeued flit 1121273
Requeued flit 1121526
Requeued flit 1121903
Requeued flit 1121759
Requeued flit 1122061
Requeued flit 1122127
Requeued flit 1122513
Requeued flit 1122658
Requeued flit 1122562
Requeued flit 1122668
Requeued flit 1122860
Requeued flit 1122667
Requeued flit 1123140
Requeued flit 1122558
Requeued flit 1122880
Requeued flit 1123390
Requeued flit 1123525
Requeued flit 1123255
Requeued flit 1123508
Requeued flit 1123753
Requeued flit 1123877
Requeued flit 1123656
Requeued flit 1124122
Requeued flit 1124713
Requeued flit 1125251
Requeued flit 1125286
Requeued flit 1125176
Requeued flit 1125271
Requeued flit 1125490
Requeued flit 1125650
Requeued flit 1125502
Requeued flit 1126071
Requeued flit 1126306
Requeued flit 1126598
Requeued flit 1126734
Requeued flit 1127043
Requeued flit 1127138
Requeued flit 1126784
Requeued flit 1127246
Requeued flit 1127052
Requeued flit 1127290
Requeued flit 1127340
Requeued flit 1127824
Requeued flit 1127569
Requeued flit 1127702
Requeued flit 1127867
Requeued flit 1127886
Requeued flit 1128312
Requeued flit 1128130
Requeued flit 1128235
Requeued flit 1128724
Requeued flit 1128637
Requeued flit 1128929
Requeued flit 1129089
Requeued flit 1129133
Requeued flit 1129515
Requeued flit 1129272
Requeued flit 1129659
Requeued flit 1129977
Requeued flit 1130489
Requeued flit 1130104
Requeued flit 1130613
Requeued flit 1131208
Requeued flit 1131503
Requeued flit 1131235
Requeued flit 1131879
Requeued flit 1131915
Requeued flit 1131856
Requeued flit 1132415
Requeued flit 1132486
Requeued flit 1132741
Requeued flit 1132831
Requeued flit 1132886
Requeued flit 1133023
Requeued flit 1132649
Requeued flit 1133147
Requeued flit 1133160
Requeued flit 1133008
Requeued flit 1133466
Requeued flit 1133456
Requeued flit 1133488
Requeued flit 1133506
Requeued flit 1133430
Requeued flit 1134102
Requeued flit 1134234
Requeued flit 1134424
Requeued flit 1134636
Requeued flit 1134871
Requeued flit 1134815
Requeued flit 1134821
Requeued flit 1134882
Requeued flit 1135493
Requeued flit 1135221
Requeued flit 1135666
Requeued flit 1135800
Requeued flit 1135959
Requeued flit 1136086
Requeued flit 1136197
Requeued flit 1136514
Requeued flit 1136554
Requeued flit 1136595
Requeued flit 1136863
Requeued flit 1136776
Requeued flit 1136579
Requeued flit 1136908
Requeued flit 1137108
Requeued flit 1137236
Requeued flit 1137349
Requeued flit 1137399
Requeued flit 1137738
Requeued flit 1137797
Requeued flit 1138004
Requeued flit 1138067
Requeued flit 1138018
Requeued flit 1138665
Requeued flit 1139135
Requeued flit 1139322
Requeued flit 1139600
Requeued flit 1139644
Requeued flit 1139753
Requeued flit 1139477
Requeued flit 1139916
Requeued flit 1140148
Requeued flit 1140291
Requeued flit 1140485
Requeued flit 1140509
Requeued flit 1141614
Requeued flit 1141392
Requeued flit 1141518
Requeued flit 1141259
Requeued flit 1141609
Requeued flit 1142437
Requeued flit 1142401
Requeued flit 1142574
Requeued flit 1142987
Requeued flit 1143300
Requeued flit 1143529
Requeued flit 1143632
Requeued flit 1143372
Requeued flit 1143696
Requeued flit 1144307
Requeued flit 1144502
Requeued flit 1144386
Requeued flit 1144196
Requeued flit 1144569
Requeued flit 1144386
Requeued flit 1144714
Requeued flit 1144813
Requeued flit 1144637
Requeued flit 1145747
Requeued flit 1146147
Requeued flit 1146216
Requeued flit 1146127
Requeued flit 1146218
Requeued flit 1146357
Requeued flit 1146934
Requeued flit 1146924
Requeued flit 1146870
Requeued flit 1147284
Requeued flit 1147077
Requeued flit 1146987
Requeued flit 1147086
Requeued flit 1147568
Requeued flit 1147839
Requeued flit 1147848
Requeued flit 1148104
Requeued flit 1147909
Requeued flit 1148303
Requeued flit 1148578
Requeued flit 1148549
Requeued flit 1148511
Requeued flit 1148833
Requeued flit 1149409
Requeued flit 1149390
Requeued flit 1149596
Requeued flit 1149534
Requeued flit 1149662
Requeued flit 1150035
Requeued flit 1149924
Requeued flit 1149711
Requeued flit 1150318
Requeued flit 1150744
Requeued flit 1150470
Requeued flit 1150604
Requeued flit 1151058
Requeued flit 1151131
Requeued flit 1151275
Requeued flit 1151550
Requeued flit 1151676
Class 0:
Packet latency average = 22.1845
	minimum = 5
	maximum = 64
Network latency average = 22.1845
	minimum = 5
	maximum = 64
Slowest packet = 1008782
Flit latency average = 22.1871
	minimum = 5
	maximum = 64
Slowest flit = 1008782
Fragmentation average = 0
	minimum = 0
	maximum = 0
Injected packet rate average = 0.300191
	minimum = 0.2942 (at node 20)
	maximum = 0.304867 (at node 7)
Accepted packet rate average = 0.300182
	minimum = 0.292867 (at node 14)
	maximum = 0.308033 (at node 15)
Injected flit rate average = 0.300191
	minimum = 0.2942 (at node 20)
	maximum = 0.304867 (at node 7)
Accepted flit rate average= 0.300182
	minimum = 0.292867 (at node 14)
	maximum = 0.308033 (at node 15)
Injected packet length average = 1
Accepted packet length average = 1
Total in-flight flits = 453 (453 measured)
latency change    = 0.00038718
throughput change = 0.000373905
Draining all recorded packets ...
in flight = 453
in flight = 429
in flight = 407
Requeued flit 1151741
in flight = 394
in flight = 371
in flight = 348
in flight = 330
in flight = 310
in flight = 288
in flight = 264
in flight = 244
in flight = 230
in flight = 213
in flight = 200
in flight = 187
Requeued flit 1151749
in flight = 174
Requeued flit 1151678
in flight = 151
in flight = 132
in flight = 121
in flight = 112
in flight = 100
in flight = 88
in flight = 81
in flight = 73
in flight = 58
in flight = 48
in flight = 44
Requeued flit 1152236
in flight = 38
in flight = 33
in flight = 29
in flight = 27
Requeued flit 1152303
in flight = 21
in flight = 15
in flight = 12
in flight = 8
in flight = 5
in flight = 3
Requeued flit 1152343
in flight = 3
in flight = 2
in flight = 1
in flight = 1
Requeued flit 1152558
in flight = 1
in flight = 1
in flight = 1
in flight = 1
Draining remaining packets ...
Requeued flit 1152228
Requeued flit 1152423
Requeued flit 1152660
Requeued flit 1152643
Time taken is 60093 cycles
====== Overall Traffic Statistics ======
====== Traffic class 0 ======
Packet latency average = 22.1878 (1 samples)
	minimum = 5 (1 samples)
	maximum = 64 (1 samples)
Network latency average = 22.1878 (1 samples)
	minimum = 5 (1 samples)
	maximum = 64 (1 samples)
Flit latency average = 22.1913 (1 samples)
	minimum = 5 (1 samples)
	maximum = 64 (1 samples)
Fragmentation average = 0 (1 samples)
	minimum = 0 (1 samples)
	maximum = 0 (1 samples)
Injected packet rate average = 0.300191 (1 samples)
	minimum = 0.2942 (1 samples)
	maximum = 0.304867 (1 samples)
Accepted packet rate average = 0.300182 (1 samples)
	minimum = 0.292867 (1 samples)
	maximum = 0.308033 (1 samples)
Injected flit rate average = 0.300191 (1 samples)
	minimum = 0.2942 (1 samples)
	maximum = 0.304867 (1 samples)
Accepted flit rate average = 0.300182 (1 samples)
	minimum = 0.292867 (1 samples)
	maximum = 0.308033 (1 samples)
Injected packet size average = 1 (1 samples)
Accepted packet size average = 1 (1 samples)
Hops average = 6.25317 (1 samples)
Total run time 170.758
