BEGIN Configuration File: examples/ecc_mesh88_config_1_0.550_link_1
// $Id$

// Copyright (c) 2007-2015, Trustees of The Leland Stanford Junior University
// All rights reserved.
//
// Redistribution and use in source and binary forms, with or without
// modification, are permitted provided that the following conditions are met:
//
// Redistributions of source code must retain the above copyright notice, this
// list of conditions and the following disclaimer.
// Redistributions in binary form must reproduce the above copyright notice,
// this list of conditions and the following disclaimer in the documentation
// and/or other materials provided with the distribution.
//
// THIS SOFTWARE IS PROVIDED BY THE COPYRIGHT HOLDERS AND CONTRIBUTORS "AS IS"
// AND ANY EXPRESS OR IMPLIED WARRANTIES, INCLUDING, BUT NOT LIMITED TO, THE
// IMPLIED WARRANTIES OF MERCHANTABILITY AND FITNESS FOR A PARTICULAR PURPOSE
// ARE DISCLAIMED. IN NO EVENT SHALL THE COPYRIGHT OWNER OR CONTRIBUTORS BE
// LIABLE FOR ANY DIRECT, INDIRECT, INCIDENTAL, SPECIAL, EXEMPLARY, OR
// CONSEQUENTIAL DAMAGES (INCLUDING, BUT NOT LIMITED TO, PROCUREMENT OF
// SUBSTITUTE GOODS OR SERVICES; LOSS OF USE, DATA, OR PROFITS; OR BUSINESS
// INTERRUPTION) HOWEVER CAUSED AND ON ANY THEORY OF LIABILITY, WHETHER IN
// CONTRACT, STRICT LIABILITY, OR TORT (INCLUDING NEGLIGENCE OR OTHERWISE)
// ARISING IN ANY WAY OUT OF THE USE OF THIS SOFTWARE, EVEN IF ADVISED OF THE
// POSSIBILITY OF SUCH DAMAGE.

// Dragonfly
//




vc_buf_size = 256;


wait_for_tail_credit = 0;

//
// Router architecture
//
vc_allocator = separable_input_first; 
sw_allocator = separable_input_first;
alloc_iters  = 1;

credit_delay   = 2;
routing_delay  = 0;
vc_alloc_delay = 1;
sw_alloc_delay = 1;
st_final_delay = 1;

input_speedup     = 1;
output_speedup    = 1;
internal_speedup  = 2.0;


warmup_periods = 3;
sim_count          = 1;

sample_period  = 10000;  


routing_function = dor;
num_vcs     = 2;

priority = none;
traffic       = uniform; 

injection_rate = 0.55;
packet_size = 1;
injection_rate_uses_flits=1;

topology = mesh;

k  = 8;
n  = 2;

fer = 1;
ecc = link;
correctable = 1;

watch_out=-;
watch_file = watch.txt;

ecc = link;

stats_out = examples/ecc_mesh88_config_1_0.550_link_1.m;

END Configuration File: examples/ecc_mesh88_config_1_0.550_link_1
Requeued flit 13
Requeued flit 20
Requeued flit 67
Requeued flit 155
Requeued flit 19
Requeued flit 97
Requeued flit 33
Requeued flit 106
Requeued flit 217
Requeued flit 224
Requeued flit 102
Requeued flit 277
Requeued flit 184
Requeued flit 342
Requeued flit 216
Requeued flit 145
Requeued flit 57
Requeued flit 26
Requeued flit 260
Requeued flit 330
Requeued flit 331
Requeued flit 171
Requeued flit 13
Requeued flit 76
Requeued flit 29
Requeued flit 370
Requeued flit 151
Requeued flit 77
Requeued flit 190
Requeued flit 455
Requeued flit 430
Requeued flit 381
Requeued flit 182
Requeued flit 348
Requeued flit 186
Requeued flit 307
Requeued flit 39
Requeued flit 403
Requeued flit 541
Requeued flit 44
Requeued flit 395
Requeued flit 281
Requeued flit 608
Requeued flit 557
Requeued flit 519
Requeued flit 257
Requeued flit 363
Requeued flit 582
Requeued flit 144
Requeued flit 781
Requeued flit 323
Requeued flit 389
Requeued flit 385
Requeued flit 473
Requeued flit 739
Requeued flit 469
Requeued flit 340
Requeued flit 262
Requeued flit 91
Requeued flit 545
Requeued flit 392
Requeued flit 161
Requeued flit 338
Requeued flit 891
Requeued flit 169
Requeued flit 259
Requeued flit 831
Requeued flit 919
Requeued flit 785
Requeued flit 825
Requeued flit 693
Requeued flit 489
Requeued flit 288
Requeued flit 317
Requeued flit 957
Requeued flit 690
Requeued flit 972
Requeued flit 875
Requeued flit 981
Requeued flit 736
Requeued flit 602
Requeued flit 523
Requeued flit 354
Requeued flit 844
Requeued flit 985
Requeued flit 254
Requeued flit 488
Requeued flit 722
Requeued flit 764
Requeued flit 1047
Requeued flit 363
Requeued flit 231
Requeued flit 1019
Requeued flit 681
Requeued flit 892
Requeued flit 652
Requeued flit 502
Requeued flit 167
Requeued flit 521
Requeued flit 32
Requeued flit 341
Requeued flit 1115
Requeued flit 392
Requeued flit 526
Requeued flit 221
Requeued flit 406
Requeued flit 223
Requeued flit 997
Requeued flit 851
Requeued flit 627
Requeued flit 982
Requeued flit 1181
Requeued flit 820
Requeued flit 1007
Requeued flit 147
Requeued flit 569
Requeued flit 1208
Requeued flit 741
Requeued flit 1067
Requeued flit 1154
Requeued flit 310
Requeued flit 1025
Requeued flit 1245
Requeued flit 886
Requeued flit 720
Requeued flit 243
Requeued flit 280
Requeued flit 176
Requeued flit 1008
Requeued flit 1083
Requeued flit 671
Requeued flit 1136
Requeued flit 1062
Requeued flit 1065
Requeued flit 995
Requeued flit 789
Requeued flit 590
Requeued flit 1119
Requeued flit 826
Requeued flit 790
Requeued flit 1152
Requeued flit 743
Requeued flit 913
Requeued flit 1343
Requeued flit 465
Requeued flit 602
Requeued flit 1252
Requeued flit 1320
Requeued flit 257
Requeued flit 971
Requeued flit 1375
Requeued flit 946
Requeued flit 1028
Requeued flit 469
Requeued flit 652
Requeued flit 500
Requeued flit 1344
Requeued flit 1148
Requeued flit 941
Requeued flit 641
Requeued flit 746
Requeued flit 1526
Requeued flit 484
Requeued flit 617
Requeued flit 909
Requeued flit 1410
Requeued flit 635
Requeued flit 1302
Requeued flit 1403
Requeued flit 1540
Requeued flit 1277
Requeued flit 1347
Requeued flit 1460
Requeued flit 1247
Requeued flit 620
Requeued flit 1130
Requeued flit 1499
Requeued flit 606
Requeued flit 753
Requeued flit 1601
Requeued flit 731
Requeued flit 1342
Requeued flit 1397
Requeued flit 745
Requeued flit 1174
Requeued flit 1261
Requeued flit 1224
Requeued flit 1618
Requeued flit 1253
Requeued flit 1593
Requeued flit 1670
Requeued flit 1303
Requeued flit 747
Requeued flit 1060
Requeued flit 608
Requeued flit 1557
Requeued flit 1711
Requeued flit 587
Requeued flit 581
Requeued flit 1390
Requeued flit 1240
Requeued flit 1170
Requeued flit 1219
Requeued flit 744
Requeued flit 1496
Requeued flit 1339
Requeued flit 1379
Requeued flit 991
Requeued flit 1062
Requeued flit 1333
Requeued flit 1600
Requeued flit 848
Requeued flit 837
Requeued flit 1654
Requeued flit 1847
Requeued flit 1779
Requeued flit 1354
Requeued flit 1672
Requeued flit 341
Requeued flit 1368
Requeued flit 1213
Requeued flit 1831
Requeued flit 1024
Requeued flit 1411
Requeued flit 1098
Requeued flit 917
Requeued flit 1140
Requeued flit 1175
Requeued flit 573
Requeued flit 946
Requeued flit 1642
Requeued flit 1799
Requeued flit 1053
Requeued flit 904
Requeued flit 1766
Requeued flit 1768
Requeued flit 1661
Requeued flit 1641
Requeued flit 761
Requeued flit 1647
Requeued flit 679
Requeued flit 1466
Requeued flit 1112
Requeued flit 1439
Requeued flit 1100
Requeued flit 1880
Requeued flit 1524
Requeued flit 1577
Requeued flit 2021
Requeued flit 742
Requeued flit 1573
Requeued flit 1674
Requeued flit 602
Requeued flit 1655
Requeued flit 1412
Requeued flit 1994
Requeued flit 341
Requeued flit 1742
Requeued flit 1570
Requeued flit 1666
Requeued flit 2004
Requeued flit 1604
Requeued flit 1692
Requeued flit 2059
Requeued flit 1986
Requeued flit 1472
Requeued flit 1663
Requeued flit 1954
Requeued flit 2061
Requeued flit 2099
Requeued flit 1214
Requeued flit 810
Requeued flit 2026
Requeued flit 2270
Requeued flit 1328
Requeued flit 1523
Requeued flit 1964
Requeued flit 2082
Requeued flit 1443
Requeued flit 678
Requeued flit 2201
Requeued flit 1566
Requeued flit 2312
Requeued flit 1864
Requeued flit 1129
Requeued flit 1886
Requeued flit 2308
Requeued flit 1450
Requeued flit 1751
Requeued flit 1649
Requeued flit 2333
Requeued flit 1747
Requeued flit 1994
Requeued flit 1180
Requeued flit 1065
Requeued flit 1744
Requeued flit 2291
Requeued flit 2410
Requeued flit 2194
Requeued flit 1858
Requeued flit 2247
Requeued flit 1733
Requeued flit 1357
Requeued flit 1711
Requeued flit 1560
Requeued flit 2390
Requeued flit 2329
Requeued flit 1436
Requeued flit 1608
Requeued flit 1621
Requeued flit 1732
Requeued flit 2092
Requeued flit 2457
Requeued flit 2138
Requeued flit 2315
Requeued flit 1664
Requeued flit 2151
Requeued flit 2121
Requeued flit 2561
Requeued flit 1966
Requeued flit 1570
Requeued flit 1654
Requeued flit 1450
Requeued flit 1801
Requeued flit 1809
Requeued flit 2422
Requeued flit 1400
Requeued flit 2024
Requeued flit 2483
Requeued flit 2453
Requeued flit 2424
Requeued flit 2279
Requeued flit 2273
Requeued flit 2641
Requeued flit 2469
Requeued flit 2361
Requeued flit 2261
Requeued flit 1511
Requeued flit 1448
Requeued flit 2694
Requeued flit 1918
Requeued flit 2607
Requeued flit 2053
Requeued flit 2773
Requeued flit 2220
Requeued flit 1694
Requeued flit 1066
Requeued flit 2278
Requeued flit 2148
Requeued flit 2528
Requeued flit 1314
Requeued flit 2181
Requeued flit 2356
Requeued flit 2347
Requeued flit 775
Requeued flit 1822
Requeued flit 1922
Requeued flit 2342
Requeued flit 2418
Requeued flit 2433
Requeued flit 1765
Requeued flit 2498
Requeued flit 2213
Requeued flit 1542
Requeued flit 2265
Requeued flit 2622
Requeued flit 2669
Requeued flit 1907
Requeued flit 2161
Requeued flit 2943
Requeued flit 2653
Requeued flit 2947
Requeued flit 2806
Requeued flit 2812
Requeued flit 2809
Requeued flit 2293
Requeued flit 2718
Requeued flit 2377
Requeued flit 2600
Requeued flit 2501
Requeued flit 2539
Requeued flit 2964
Requeued flit 2482
Requeued flit 2843
Requeued flit 1368
Requeued flit 2587
Requeued flit 3031
Requeued flit 1525
Requeued flit 3077
Requeued flit 2548
Requeued flit 1809
Requeued flit 1448
Requeued flit 3053
Requeued flit 2796
Requeued flit 1357
Requeued flit 2958
Requeued flit 2679
Requeued flit 2333
Requeued flit 2580
Requeued flit 1845
Requeued flit 2834
Requeued flit 2525
Requeued flit 2701
Requeued flit 2606
Requeued flit 2477
Requeued flit 1692
Requeued flit 2797
Requeued flit 1958
Requeued flit 3171
Requeued flit 2062
Requeued flit 3003
Requeued flit 2746
Requeued flit 2819
Requeued flit 2466
Requeued flit 2438
Requeued flit 2391
Requeued flit 2817
Requeued flit 2531
Requeued flit 2698
Requeued flit 3178
Requeued flit 3250
Requeued flit 3118
Requeued flit 1955
Requeued flit 2490
Requeued flit 2050
Requeued flit 2681
Requeued flit 1814
Requeued flit 2013
Requeued flit 2196
Requeued flit 2950
Requeued flit 1483
Requeued flit 1990
Requeued flit 2093
Requeued flit 1780
Requeued flit 2832
Requeued flit 2092
Requeued flit 2325
Requeued flit 2853
Requeued flit 2384
Requeued flit 1319
Requeued flit 2061
Requeued flit 3312
Requeued flit 3108
Requeued flit 2189
Requeued flit 3355
Requeued flit 3365
Requeued flit 2744
Requeued flit 3030
Requeued flit 3242
Requeued flit 2590
Requeued flit 2518
Requeued flit 2944
Requeued flit 2719
Requeued flit 2686
Requeued flit 2830
Requeued flit 3173
Requeued flit 2768
Requeued flit 3457
Requeued flit 2689
Requeued flit 3544
Requeued flit 2093
Requeued flit 3019
Requeued flit 2453
Requeued flit 3102
Requeued flit 2829
Requeued flit 3464
Requeued flit 2654
Requeued flit 1842
Requeued flit 3631
Requeued flit 3276
Requeued flit 2816
Requeued flit 2782
Requeued flit 3085
Requeued flit 2916
Requeued flit 2264
Requeued flit 2945
Requeued flit 2846
Requeued flit 3703
Requeued flit 3588
Requeued flit 2903
Requeued flit 3600
Requeued flit 3567
Requeued flit 3410
Requeued flit 2799
Requeued flit 1816
Requeued flit 2016
Requeued flit 2588
Requeued flit 2325
Requeued flit 3257
Requeued flit 3729
Requeued flit 3841
Requeued flit 3423
Requeued flit 3235
Requeued flit 2719
Requeued flit 2026
Requeued flit 3113
Requeued flit 2371
Requeued flit 2908
Requeued flit 3698
Requeued flit 3603
Requeued flit 2596
Requeued flit 3292
Requeued flit 3958
Requeued flit 3272
Requeued flit 2953
Requeued flit 2985
Requeued flit 2682
Requeued flit 2341
Requeued flit 3010
Requeued flit 2553
Requeued flit 3340
Requeued flit 2782
Requeued flit 4021
Requeued flit 2821
Requeued flit 2300
Requeued flit 2160
Requeued flit 3478
Requeued flit 3490
Requeued flit 3905
Requeued flit 3514
Requeued flit 3744
Requeued flit 3539
Requeued flit 3044
Requeued flit 3900
Requeued flit 3388
Requeued flit 3366
Requeued flit 4069
Requeued flit 4071
Requeued flit 3872
Requeued flit 3080
Requeued flit 3523
Requeued flit 2923
Requeued flit 2460
Requeued flit 3996
Requeued flit 2836
Requeued flit 3700
Requeued flit 2804
Requeued flit 3652
Requeued flit 3916
Requeued flit 3834
Requeued flit 4110
Requeued flit 3456
Requeued flit 3561
Requeued flit 3442
Requeued flit 2342
Requeued flit 3436
Requeued flit 4136
Requeued flit 4067
Requeued flit 4149
Requeued flit 4044
Requeued flit 2612
Requeued flit 3513
Requeued flit 3057
Requeued flit 3378
Requeued flit 2513
Requeued flit 4022
Requeued flit 3959
Requeued flit 4253
Requeued flit 3205
Requeued flit 3198
Requeued flit 4260
Requeued flit 4147
Requeued flit 3950
Requeued flit 2724
Requeued flit 3026
Requeued flit 3890
Requeued flit 3148
Requeued flit 3466
Requeued flit 3184
Requeued flit 3917
Requeued flit 3110
Requeued flit 3631
Requeued flit 4224
Requeued flit 2993
Requeued flit 2009
Requeued flit 3943
Requeued flit 3146
Requeued flit 3616
Requeued flit 2656
Requeued flit 3479
Requeued flit 4419
Requeued flit 3406
Requeued flit 4385
Requeued flit 3498
Requeued flit 4248
Requeued flit 4359
Requeued flit 3732
Requeued flit 3710
Requeued flit 2477
Requeued flit 2994
Requeued flit 3525
Requeued flit 2620
Requeued flit 4430
Requeued flit 4262
Requeued flit 2832
Requeued flit 4370
Requeued flit 3344
Requeued flit 2453
Requeued flit 3135
Requeued flit 3144
Requeued flit 4427
Requeued flit 3221
Requeued flit 3672
Requeued flit 2647
Requeued flit 4246
Requeued flit 4550
Requeued flit 3840
Requeued flit 1025
Requeued flit 4559
Requeued flit 4379
Requeued flit 3954
Requeued flit 3069
Requeued flit 4349
Requeued flit 3294
Requeued flit 4398
Requeued flit 3199
Requeued flit 4321
Requeued flit 4562
Requeued flit 2630
Requeued flit 4698
Requeued flit 3931
Requeued flit 4668
Requeued flit 4704
Requeued flit 4605
Requeued flit 2501
Requeued flit 4492
Requeued flit 3112
Requeued flit 3961
Requeued flit 3983
Requeued flit 3998
Requeued flit 4669
Requeued flit 2467
Requeued flit 4635
Requeued flit 4060
Requeued flit 4273
Requeued flit 4535
Requeued flit 4175
Requeued flit 4272
Requeued flit 3689
Requeued flit 4429
Requeued flit 4363
Requeued flit 4360
Requeued flit 4117
Requeued flit 3492
Requeued flit 2828
Requeued flit 3464
Requeued flit 3312
Requeued flit 3082
Requeued flit 3708
Requeued flit 2457
Requeued flit 4785
Requeued flit 3857
Requeued flit 3336
Requeued flit 4063
Requeued flit 3108
Requeued flit 4161
Requeued flit 4383
Requeued flit 4614
Requeued flit 4080
Requeued flit 3926
Requeued flit 2442
Requeued flit 4303
Requeued flit 3136
Requeued flit 4752
Requeued flit 4067
Requeued flit 3488
Requeued flit 3946
Requeued flit 2874
Requeued flit 3868
Requeued flit 3961
Requeued flit 3599
Requeued flit 4468
Requeued flit 4859
Requeued flit 2482
Requeued flit 4892
Requeued flit 3130
Requeued flit 3978
Requeued flit 3949
Requeued flit 3960
Requeued flit 2591
Requeued flit 4064
Requeued flit 3608
Requeued flit 3832
Requeued flit 3955
Requeued flit 3527
Requeued flit 4808
Requeued flit 4560
Requeued flit 5028
Requeued flit 5031
Requeued flit 3857
Requeued flit 4458
Requeued flit 2686
Requeued flit 2724
Requeued flit 4354
Requeued flit 5105
Requeued flit 4669
Requeued flit 4364
Requeued flit 4076
Requeued flit 4909
Requeued flit 4713
Requeued flit 3015
Requeued flit 3657
Requeued flit 3944
Requeued flit 4356
Requeued flit 4066
Requeued flit 4893
Requeued flit 5030
Requeued flit 3627
Requeued flit 4283
Requeued flit 5078
Requeued flit 4199
Requeued flit 3829
Requeued flit 4655
Requeued flit 4885
Requeued flit 3573
Requeued flit 3759
Requeued flit 4736
Requeued flit 5196
Requeued flit 3272
Requeued flit 4691
Requeued flit 4735
Requeued flit 5120
Requeued flit 4298
Requeued flit 3624
Requeued flit 3663
Requeued flit 4436
Requeued flit 4530
Requeued flit 4866
Requeued flit 3764
Requeued flit 4806
Requeued flit 4586
Requeued flit 2648
Requeued flit 3136
Requeued flit 5101
Requeued flit 3018
Requeued flit 5362
Requeued flit 3385
Requeued flit 4279
Requeued flit 4118
Requeued flit 4002
Requeued flit 4639
Requeued flit 4527
Requeued flit 5345
Requeued flit 4990
Requeued flit 3793
Requeued flit 2836
Requeued flit 4368
Requeued flit 5118
Requeued flit 3740
Requeued flit 3581
Requeued flit 5315
Requeued flit 4512
Requeued flit 5368
Requeued flit 3831
Requeued flit 4400
Requeued flit 5078
Requeued flit 3432
Requeued flit 2754
Requeued flit 4431
Requeued flit 3468
Requeued flit 3401
Requeued flit 4928
Requeued flit 3724
Requeued flit 5069
Requeued flit 4966
Requeued flit 4772
Requeued flit 4423
Requeued flit 3559
Requeued flit 3591
Requeued flit 4494
Requeued flit 1357
Requeued flit 4495
Requeued flit 4718
Requeued flit 4979
Requeued flit 4995
Requeued flit 4761
Requeued flit 4696
Requeued flit 4300
Requeued flit 4890
Requeued flit 4637
Requeued flit 5196
Requeued flit 4984
Requeued flit 4753
Requeued flit 3930
Requeued flit 4223
Requeued flit 5335
Requeued flit 4135
Requeued flit 5604
Requeued flit 5314
Requeued flit 4705
Requeued flit 5174
Requeued flit 5594
Requeued flit 5488
Requeued flit 4796
Requeued flit 4553
Requeued flit 4565
Requeued flit 5200
Requeued flit 4724
Requeued flit 5470
Requeued flit 5142
Requeued flit 4804
Requeued flit 5554
Requeued flit 3085
Requeued flit 4883
Requeued flit 4418
Requeued flit 4459
Requeued flit 5300
Requeued flit 4361
Requeued flit 5704
Requeued flit 5770
Requeued flit 5536
Requeued flit 3802
Requeued flit 5360
Requeued flit 4975
Requeued flit 4438
Requeued flit 5508
Requeued flit 5734
Requeued flit 3864
Requeued flit 4581
Requeued flit 4260
Requeued flit 3136
Requeued flit 5321
Requeued flit 4683
Requeued flit 4887
Requeued flit 4404
Requeued flit 4371
Requeued flit 5572
Requeued flit 4281
Requeued flit 5497
Requeued flit 5505
Requeued flit 5021
Requeued flit 4726
Requeued flit 5818
Requeued flit 4754
Requeued flit 5820
Requeued flit 4487
Requeued flit 4626
Requeued flit 4745
Requeued flit 4766
Requeued flit 4986
Requeued flit 4677
Requeued flit 4852
Requeued flit 4179
Requeued flit 4497
Requeued flit 4546
Requeued flit 4143
Requeued flit 5372
Requeued flit 1357
Requeued flit 4097
Requeued flit 5961
Requeued flit 5855
Requeued flit 5784
Requeued flit 4210
Requeued flit 4481
Requeued flit 5440
Requeued flit 5905
Requeued flit 4507
Requeued flit 5801
Requeued flit 6000
Requeued flit 5755
Requeued flit 4800
Requeued flit 3760
Requeued flit 5428
Requeued flit 3929
Requeued flit 4802
Requeued flit 5457
Requeued flit 4535
Requeued flit 5920
Requeued flit 5353
Requeued flit 6096
Requeued flit 5290
Requeued flit 4985
Requeued flit 4664
Requeued flit 5443
Requeued flit 5880
Requeued flit 4194
Requeued flit 4628
Requeued flit 6066
Requeued flit 5010
Requeued flit 5517
Requeued flit 6201
Requeued flit 6231
Requeued flit 5813
Requeued flit 6017
Requeued flit 4989
Requeued flit 6249
Requeued flit 5767
Requeued flit 5241
Requeued flit 5253
Requeued flit 6028
Requeued flit 5618
Requeued flit 6310
Requeued flit 5223
Requeued flit 5246
Requeued flit 5307
Requeued flit 5773
Requeued flit 5201
Requeued flit 5283
Requeued flit 6125
Requeued flit 5759
Requeued flit 5724
Requeued flit 4091
Requeued flit 5574
Requeued flit 5101
Requeued flit 4000
Requeued flit 4974
Requeued flit 5613
Requeued flit 4354
Requeued flit 6210
Requeued flit 6415
Requeued flit 6348
Requeued flit 6238
Requeued flit 6354
Requeued flit 4942
Requeued flit 5637
Requeued flit 5055
Requeued flit 4846
Requeued flit 6022
Requeued flit 6276
Requeued flit 6385
Requeued flit 5077
Requeued flit 4698
Requeued flit 5758
Requeued flit 4098
Requeued flit 3962
Requeued flit 6229
Requeued flit 5713
Requeued flit 6423
Requeued flit 4313
Requeued flit 6221
Requeued flit 5616
Requeued flit 6471
Requeued flit 5556
Requeued flit 5311
Requeued flit 5994
Requeued flit 4132
Requeued flit 4957
Requeued flit 5920
Requeued flit 5979
Requeued flit 5440
Requeued flit 5669
Requeued flit 3998
Requeued flit 5602
Requeued flit 4390
Requeued flit 4384
Requeued flit 5379
Requeued flit 4965
Requeued flit 5944
Requeued flit 4346
Requeued flit 5673
Requeued flit 5280
Requeued flit 4396
Requeued flit 5898
Requeued flit 4840
Requeued flit 5410
Requeued flit 6582
Requeued flit 6732
Requeued flit 5284
Requeued flit 3592
Requeued flit 4554
Requeued flit 6508
Requeued flit 5942
Requeued flit 4907
Requeued flit 6644
Requeued flit 5237
Requeued flit 5138
Requeued flit 4734
Requeued flit 5908
Requeued flit 6165
Requeued flit 6548
Requeued flit 5990
Requeued flit 5817
Requeued flit 6796
Requeued flit 4091
Requeued flit 5398
Requeued flit 5422
Requeued flit 4884
Requeued flit 6050
Requeued flit 6097
Requeued flit 6474
Requeued flit 4038
Requeued flit 6599
Requeued flit 5630
Requeued flit 5697
Requeued flit 6778
Requeued flit 4585
Requeued flit 5565
Requeued flit 5068
Requeued flit 6808
Requeued flit 4510
Requeued flit 6051
Requeued flit 5672
Requeued flit 6787
Requeued flit 6504
Requeued flit 5961
Requeued flit 5864
Requeued flit 5522
Requeued flit 6812
Requeued flit 4513
Requeued flit 6763
Requeued flit 5139
Requeued flit 6866
Requeued flit 6042
Requeued flit 6204
Requeued flit 6961
Requeued flit 4519
Requeued flit 5704
Requeued flit 6176
Requeued flit 7010
Requeued flit 5865
Requeued flit 6678
Requeued flit 6054
Requeued flit 6518
Requeued flit 6453
Requeued flit 6902
Requeued flit 4099
Requeued flit 6605
Requeued flit 6767
Requeued flit 5858
Requeued flit 6357
Requeued flit 6070
Requeued flit 6664
Requeued flit 5227
Requeued flit 6255
Requeued flit 6860
Requeued flit 6349
Requeued flit 6799
Requeued flit 6290
Requeued flit 6047
Requeued flit 6561
Requeued flit 6996
Requeued flit 6154
Requeued flit 5445
Requeued flit 6045
Requeued flit 6179
Requeued flit 5323
Requeued flit 5843
Requeued flit 5326
Requeued flit 6370
Requeued flit 6117
Requeued flit 5034
Requeued flit 6863
Requeued flit 5154
Requeued flit 6461
Requeued flit 5552
Requeued flit 5738
Requeued flit 5812
Requeued flit 6149
Requeued flit 6121
Requeued flit 6322
Requeued flit 5979
Requeued flit 6815
Requeued flit 5816
Requeued flit 5905
Requeued flit 6175
Requeued flit 6416
Requeued flit 6019
Requeued flit 6218
Requeued flit 4660
Requeued flit 7142
Requeued flit 6062
Requeued flit 6759
Requeued flit 5507
Requeued flit 6138
Requeued flit 6458
Requeued flit 7222
Requeued flit 6244
Requeued flit 6044
Requeued flit 5762
Requeued flit 7310
Requeued flit 4925
Requeued flit 6030
Requeued flit 5454
Requeued flit 7060
Requeued flit 5356
Requeued flit 6221
Requeued flit 6636
Requeued flit 6336
Requeued flit 7209
Requeued flit 6348
Requeued flit 6995
Requeued flit 6985
Requeued flit 6074
Requeued flit 5227
Requeued flit 3825
Requeued flit 5021
Requeued flit 6812
Requeued flit 6971
Requeued flit 6107
Requeued flit 6248
Requeued flit 6524
Requeued flit 6592
Requeued flit 7242
Requeued flit 6127
Requeued flit 6018
Requeued flit 6497
Requeued flit 5964
Requeued flit 6396
Requeued flit 5624
Requeued flit 5205
Requeued flit 6332
Requeued flit 6783
Requeued flit 4963
Requeued flit 7037
Requeued flit 7588
Requeued flit 7622
Requeued flit 7254
Requeued flit 6571
Requeued flit 6510
Requeued flit 7585
Requeued flit 5960
Requeued flit 6520
Requeued flit 7117
Requeued flit 7292
Requeued flit 6163
Requeued flit 6719
Requeued flit 4802
Requeued flit 5034
Requeued flit 6716
Requeued flit 7550
Requeued flit 5537
Requeued flit 7756
Requeued flit 7555
Requeued flit 7538
Requeued flit 5893
Requeued flit 7140
Requeued flit 7188
Requeued flit 7511
Requeued flit 7774
Requeued flit 6973
Requeued flit 7792
Requeued flit 5982
Requeued flit 6212
Requeued flit 7029
Requeued flit 7772
Requeued flit 6186
Requeued flit 5213
Requeued flit 6475
Requeued flit 4853
Requeued flit 6894
Requeued flit 7654
Requeued flit 7727
Requeued flit 6805
Requeued flit 7804
Requeued flit 7910
Requeued flit 5494
Requeued flit 6396
Requeued flit 7430
Requeued flit 7182
Requeued flit 6307
Requeued flit 6656
Requeued flit 6527
Requeued flit 7543
Requeued flit 7929
Requeued flit 7593
Requeued flit 7950
Requeued flit 7397
Requeued flit 6117
Requeued flit 7003
Requeued flit 8001
Requeued flit 8007
Requeued flit 7657
Requeued flit 7054
Requeued flit 6178
Requeued flit 6752
Requeued flit 7634
Requeued flit 7061
Requeued flit 6211
Requeued flit 7995
Requeued flit 6552
Requeued flit 6554
Requeued flit 7035
Requeued flit 7549
Requeued flit 8052
Requeued flit 7162
Requeued flit 7252
Requeued flit 8059
Requeued flit 6530
Requeued flit 7881
Requeued flit 7742
Requeued flit 7119
Requeued flit 7629
Requeued flit 7874
Requeued flit 7230
Requeued flit 7533
Requeued flit 8069
Requeued flit 7433
Requeued flit 7090
Requeued flit 7156
Requeued flit 6699
Requeued flit 5915
Requeued flit 8087
Requeued flit 7654
Requeued flit 6737
Requeued flit 5989
Requeued flit 7117
Requeued flit 6066
Requeued flit 6443
Requeued flit 7810
Requeued flit 7370
Requeued flit 5965
Requeued flit 6324
Requeued flit 7825
Requeued flit 6385
Requeued flit 8191
Requeued flit 7715
Requeued flit 6738
Requeued flit 5280
Requeued flit 6337
Requeued flit 6857
Requeued flit 6275
Requeued flit 7683
Requeued flit 7457
Requeued flit 6783
Requeued flit 7926
Requeued flit 8245
Requeued flit 7910
Requeued flit 8188
Requeued flit 7053
Requeued flit 7228
Requeued flit 8207
Requeued flit 5607
Requeued flit 7410
Requeued flit 8317
Requeued flit 7687
Requeued flit 4852
Requeued flit 7176
Requeued flit 7787
Requeued flit 8349
Requeued flit 5844
Requeued flit 6484
Requeued flit 7906
Requeued flit 7556
Requeued flit 6130
Requeued flit 7469
Requeued flit 7181
Requeued flit 8314
Requeued flit 8399
Requeued flit 6060
Requeued flit 7265
Requeued flit 6101
Requeued flit 7944
Requeued flit 8415
Requeued flit 7614
Requeued flit 7794
Requeued flit 7909
Requeued flit 7391
Requeued flit 5756
Requeued flit 5684
Requeued flit 7814
Requeued flit 8197
Requeued flit 8270
Requeued flit 6821
Requeued flit 6423
Requeued flit 7131
Requeued flit 6583
Requeued flit 6899
Requeued flit 7206
Requeued flit 5751
Requeued flit 8449
Requeued flit 8172
Requeued flit 8350
Requeued flit 6726
Requeued flit 6766
Requeued flit 8288
Requeued flit 7629
Requeued flit 4826
Requeued flit 7365
Requeued flit 7309
Requeued flit 7863
Requeued flit 8219
Requeued flit 8187
Requeued flit 5696
Requeued flit 7336
Requeued flit 8628
Requeued flit 7937
Requeued flit 7417
Requeued flit 6066
Requeued flit 6511
Requeued flit 7943
Requeued flit 7804
Requeued flit 8543
Requeued flit 6652
Requeued flit 7004
Requeued flit 7586
Requeued flit 7660
Requeued flit 8328
Requeued flit 7174
Requeued flit 7111
Requeued flit 8536
Requeued flit 8615
Requeued flit 7927
Requeued flit 6485
Requeued flit 8140
Requeued flit 7110
Requeued flit 7634
Requeued flit 8223
Requeued flit 6480
Requeued flit 8517
Requeued flit 7462
Requeued flit 8532
Requeued flit 7403
Requeued flit 7236
Requeued flit 8639
Requeued flit 6977
Requeued flit 6825
Requeued flit 8113
Requeued flit 7941
Requeued flit 8849
Requeued flit 7843
Requeued flit 8546
Requeued flit 8783
Requeued flit 6770
Requeued flit 8822
Requeued flit 8201
Requeued flit 6602
Requeued flit 8609
Requeued flit 5582
Requeued flit 8906
Requeued flit 8705
Requeued flit 7597
Requeued flit 8682
Requeued flit 7955
Requeued flit 7283
Requeued flit 7428
Requeued flit 7113
Requeued flit 6972
Requeued flit 7527
Requeued flit 5430
Requeued flit 8719
Requeued flit 8411
Requeued flit 6376
Requeued flit 7549
Requeued flit 8152
Requeued flit 8963
Requeued flit 6658
Requeued flit 8288
Requeued flit 8486
Requeued flit 7436
Requeued flit 6596
Requeued flit 7766
Requeued flit 7524
Requeued flit 6684
Requeued flit 7771
Requeued flit 8155
Requeued flit 8876
Requeued flit 8913
Requeued flit 8087
Requeued flit 8093
Requeued flit 8501
Requeued flit 8680
Requeued flit 7296
Requeued flit 8978
Requeued flit 7730
Requeued flit 6978
Requeued flit 8494
Requeued flit 8243
Requeued flit 8973
Requeued flit 7056
Requeued flit 8550
Requeued flit 8164
Requeued flit 7787
Requeued flit 7852
Requeued flit 8631
Requeued flit 8730
Requeued flit 8990
Requeued flit 7974
Requeued flit 6911
Requeued flit 8026
Requeued flit 8068
Requeued flit 8120
Requeued flit 6945
Requeued flit 8166
Requeued flit 8382
Requeued flit 8620
Requeued flit 8829
Requeued flit 9203
Requeued flit 8949
Requeued flit 8493
Requeued flit 8203
Requeued flit 7970
Requeued flit 7786
Requeued flit 8128
Requeued flit 7248
Requeued flit 7385
Requeued flit 9340
Requeued flit 9311
Requeued flit 8482
Requeued flit 7844
Requeued flit 8820
Requeued flit 7349
Requeued flit 9009
Requeued flit 7435
Requeued flit 6414
Requeued flit 7949
Requeued flit 7219
Requeued flit 8556
Requeued flit 7079
Requeued flit 6603
Requeued flit 7510
Requeued flit 8361
Requeued flit 6851
Requeued flit 7094
Requeued flit 9267
Requeued flit 9268
Requeued flit 9199
Requeued flit 8240
Requeued flit 6778
Requeued flit 6788
Requeued flit 8921
Requeued flit 8621
Requeued flit 9266
Requeued flit 7418
Requeued flit 9373
Requeued flit 7982
Requeued flit 7405
Requeued flit 6787
Requeued flit 7981
Requeued flit 7300
Requeued flit 9054
Requeued flit 8994
Requeued flit 8292
Requeued flit 8592
Requeued flit 9449
Requeued flit 8928
Requeued flit 7929
Requeued flit 9170
Requeued flit 7146
Requeued flit 6193
Requeued flit 8011
Requeued flit 9560
Requeued flit 9570
Requeued flit 9508
Requeued flit 8272
Requeued flit 8373
Requeued flit 8604
Requeued flit 7489
Requeued flit 8997
Requeued flit 7991
Requeued flit 7787
Requeued flit 8269
Requeued flit 8436
Requeued flit 7551
Requeued flit 8385
Requeued flit 8849
Requeued flit 7772
Requeued flit 8898
Requeued flit 8341
Requeued flit 8221
Requeued flit 8248
Requeued flit 9678
Requeued flit 9216
Requeued flit 8035
Requeued flit 8671
Requeued flit 8799
Requeued flit 9698
Requeued flit 7005
Requeued flit 8158
Requeued flit 9131
Requeued flit 7627
Requeued flit 7331
Requeued flit 8264
Requeued flit 9727
Requeued flit 9066
Requeued flit 8249
Requeued flit 9433
Requeued flit 8625
Requeued flit 7519
Requeued flit 9504
Requeued flit 9153
Requeued flit 7419
Requeued flit 9790
Requeued flit 9272
Requeued flit 8309
Requeued flit 9379
Requeued flit 5621
Requeued flit 7590
Requeued flit 9600
Requeued flit 9252
Requeued flit 9756
Requeued flit 9685
Requeued flit 6193
Requeued flit 9027
Requeued flit 9742
Requeued flit 8502
Requeued flit 9291
Requeued flit 9486
Requeued flit 9116
Requeued flit 8944
Requeued flit 9876
Requeued flit 8090
Requeued flit 8192
Requeued flit 7163
Requeued flit 8437
Requeued flit 9871
Requeued flit 9418
Requeued flit 9096
Requeued flit 9875
Requeued flit 9850
Requeued flit 9787
Requeued flit 9827
Requeued flit 7515
Requeued flit 8481
Requeued flit 8448
Requeued flit 7285
Requeued flit 8350
Requeued flit 8763
Requeued flit 8541
Requeued flit 9821
Requeued flit 7809
Requeued flit 9791
Requeued flit 6850
Requeued flit 6060
Requeued flit 9312
Requeued flit 9328
Requeued flit 9653
Requeued flit 9471
Requeued flit 9948
Requeued flit 7414
Requeued flit 8732
Requeued flit 8213
Requeued flit 9016
Requeued flit 8675
Requeued flit 7914
Requeued flit 8793
Requeued flit 10021
Requeued flit 9743
Requeued flit 8781
Requeued flit 8710
Requeued flit 9977
Requeued flit 8476
Requeued flit 8508
Requeued flit 10000
Requeued flit 8537
Requeued flit 8687
Requeued flit 9829
Requeued flit 10148
Requeued flit 8323
Requeued flit 8689
Requeued flit 8797
Requeued flit 8910
Requeued flit 10265
Requeued flit 9449
Requeued flit 6376
Requeued flit 8916
Requeued flit 9298
Requeued flit 10221
Requeued flit 8668
Requeued flit 6726
Requeued flit 8528
Requeued flit 8761
Requeued flit 10291
Requeued flit 9439
Requeued flit 9507
Requeued flit 9803
Requeued flit 10317
Requeued flit 10286
Requeued flit 9792
Requeued flit 7051
Requeued flit 8292
Requeued flit 8665
Requeued flit 10306
Requeued flit 9387
Requeued flit 10242
Requeued flit 8343
Requeued flit 8587
Requeued flit 8915
Requeued flit 8530
Requeued flit 8012
Requeued flit 9464
Requeued flit 10425
Requeued flit 7904
Requeued flit 8115
Requeued flit 9747
Requeued flit 10062
Requeued flit 9468
Requeued flit 10272
Requeued flit 10126
Requeued flit 9923
Requeued flit 7727
Requeued flit 9714
Requeued flit 9606
Requeued flit 7949
Requeued flit 8430
Requeued flit 7297
Requeued flit 10458
Requeued flit 7143
Requeued flit 8309
Requeued flit 9657
Requeued flit 9598
Requeued flit 10539
Requeued flit 7820
Requeued flit 8826
Requeued flit 7724
Requeued flit 10387
Requeued flit 9280
Requeued flit 10530
Requeued flit 10426
Requeued flit 9671
Requeued flit 10431
Requeued flit 8785
Requeued flit 8955
Requeued flit 6580
Requeued flit 9647
Requeued flit 8281
Requeued flit 9154
Requeued flit 8707
Requeued flit 7162
Requeued flit 9169
Requeued flit 8495
Requeued flit 10642
Requeued flit 8559
Requeued flit 10664
Requeued flit 10161
Requeued flit 8874
Requeued flit 7837
Requeued flit 10328
Requeued flit 5582
Requeued flit 9686
Requeued flit 10553
Requeued flit 9251
Requeued flit 10579
Requeued flit 9494
Requeued flit 9912
Requeued flit 10634
Requeued flit 10094
Requeued flit 9120
Requeued flit 10617
Requeued flit 10587
Requeued flit 10626
Requeued flit 9238
Requeued flit 9833
Requeued flit 9028
Requeued flit 9172
Requeued flit 9528
Requeued flit 9046
Requeued flit 9121
Requeued flit 7794
Requeued flit 9987
Requeued flit 10207
Requeued flit 9321
Requeued flit 9886
Requeued flit 8901
Requeued flit 9584
Requeued flit 10021
Requeued flit 10535
Requeued flit 8628
Requeued flit 9422
Requeued flit 10322
Requeued flit 8470
Requeued flit 10291
Requeued flit 8945
Requeued flit 8375
Requeued flit 7145
Requeued flit 8611
Requeued flit 8099
Requeued flit 10688
Requeued flit 9844
Requeued flit 10889
Requeued flit 10109
Requeued flit 10074
Requeued flit 10010
Requeued flit 8122
Requeued flit 10083
Requeued flit 9951
Requeued flit 8146
Requeued flit 8872
Requeued flit 7875
Requeued flit 9737
Requeued flit 8049
Requeued flit 10426
Requeued flit 9404
Requeued flit 7681
Requeued flit 8123
Requeued flit 11079
Requeued flit 7756
Requeued flit 10438
Requeued flit 9717
Requeued flit 9342
Requeued flit 11034
Requeued flit 9956
Requeued flit 9784
Requeued flit 7615
Requeued flit 8064
Requeued flit 10869
Requeued flit 10840
Requeued flit 6903
Requeued flit 10020
Requeued flit 8795
Requeued flit 10994
Requeued flit 7196
Requeued flit 11024
Requeued flit 9326
Requeued flit 10321
Requeued flit 8647
Requeued flit 9059
Requeued flit 8930
Requeued flit 11184
Requeued flit 7621
Requeued flit 9904
Requeued flit 9735
Requeued flit 10963
Requeued flit 9671
Requeued flit 10676
Requeued flit 9859
Requeued flit 9511
Requeued flit 10879
Requeued flit 9564
Requeued flit 11205
Requeued flit 10827
Requeued flit 9465
Requeued flit 8389
Requeued flit 11034
Requeued flit 9305
Requeued flit 9870
Requeued flit 11304
Requeued flit 10503
Requeued flit 10842
Requeued flit 9501
Requeued flit 10855
Requeued flit 11336
Requeued flit 11377
Requeued flit 9604
Requeued flit 9905
Requeued flit 10809
Requeued flit 9620
Requeued flit 10887
Requeued flit 7597
Requeued flit 10859
Requeued flit 9436
Requeued flit 9712
Requeued flit 8747
Requeued flit 10800
Requeued flit 10419
Requeued flit 10240
Requeued flit 11168
Requeued flit 9366
Requeued flit 7681
Requeued flit 10363
Requeued flit 9798
Requeued flit 9763
Requeued flit 10183
Requeued flit 10280
Requeued flit 9267
Requeued flit 10046
Requeued flit 11326
Requeued flit 11358
Requeued flit 8102
Requeued flit 9553
Requeued flit 10124
Requeued flit 11038
Requeued flit 11378
Requeued flit 11490
Requeued flit 10169
Requeued flit 9615
Requeued flit 10080
Requeued flit 10669
Requeued flit 10314
Requeued flit 11544
Requeued flit 10053
Requeued flit 7876
Requeued flit 11069
Requeued flit 9062
Requeued flit 10143
Requeued flit 8874
Requeued flit 11508
Requeued flit 8830
Requeued flit 10973
Requeued flit 11597
Requeued flit 9509
Requeued flit 10044
Requeued flit 11306
Requeued flit 9811
Requeued flit 8277
Requeued flit 9320
Requeued flit 10753
Requeued flit 11541
Requeued flit 11421
Requeued flit 10683
Requeued flit 11084
Requeued flit 11497
Requeued flit 10845
Requeued flit 10427
Requeued flit 9218
Requeued flit 10262
Requeued flit 11702
Requeued flit 9599
Requeued flit 8946
Requeued flit 10287
Requeued flit 9726
Requeued flit 8828
Requeued flit 10510
Requeued flit 11433
Requeued flit 10158
Requeued flit 11673
Requeued flit 8152
Requeued flit 9224
Requeued flit 10301
Requeued flit 10612
Requeued flit 10352
Requeued flit 9827
Requeued flit 9568
Requeued flit 11847
Requeued flit 10271
Requeued flit 8385
Requeued flit 9927
Requeued flit 11733
Requeued flit 9446
Requeued flit 11362
Requeued flit 9134
Requeued flit 11332
Requeued flit 7862
Requeued flit 9984
Requeued flit 11869
Requeued flit 11593
Requeued flit 10409
Requeued flit 9950
Requeued flit 9672
Requeued flit 9440
Requeued flit 11996
Requeued flit 10577
Requeued flit 11940
Requeued flit 9332
Requeued flit 9841
Requeued flit 8836
Requeued flit 12038
Requeued flit 11897
Requeued flit 10498
Requeued flit 9515
Requeued flit 10980
Requeued flit 10173
Requeued flit 7660
Requeued flit 11534
Requeued flit 9119
Requeued flit 11668
Requeued flit 10394
Requeued flit 8282
Requeued flit 10603
Requeued flit 7698
Requeued flit 11846
Requeued flit 10002
Requeued flit 9819
Requeued flit 10706
Requeued flit 11973
Requeued flit 11315
Requeued flit 10575
Requeued flit 10775
Requeued flit 12163
Requeued flit 12097
Requeued flit 10820
Requeued flit 11272
Requeued flit 10805
Requeued flit 11810
Requeued flit 12125
Requeued flit 12096
Requeued flit 8605
Requeued flit 11905
Requeued flit 10604
Requeued flit 8926
Requeued flit 10563
Requeued flit 12102
Requeued flit 9787
Requeued flit 10758
Requeued flit 11466
Requeued flit 11885
Requeued flit 11829
Requeued flit 11651
Requeued flit 10026
Requeued flit 8826
Requeued flit 10135
Requeued flit 10075
Requeued flit 11311
Requeued flit 11923
Requeued flit 9823
Requeued flit 11208
Requeued flit 11134
Requeued flit 10498
Requeued flit 8962
Requeued flit 9255
Requeued flit 12319
Requeued flit 10101
Requeued flit 11257
Requeued flit 10812
Requeued flit 11026
Requeued flit 12344
Requeued flit 12322
Requeued flit 11665
Requeued flit 12282
Requeued flit 10319
Requeued flit 11454
Requeued flit 12280
Requeued flit 10224
Requeued flit 12432
Requeued flit 11822
Requeued flit 8543
Requeued flit 12401
Requeued flit 12187
Requeued flit 10021
Requeued flit 11924
Requeued flit 11831
Requeued flit 12209
Requeued flit 12392
Requeued flit 8395
Requeued flit 12447
Requeued flit 12144
Requeued flit 10398
Requeued flit 12498
Requeued flit 10347
Requeued flit 10473
Requeued flit 9351
Requeued flit 9771
Requeued flit 9525
Requeued flit 12522
Requeued flit 12415
Requeued flit 10716
Requeued flit 8826
Requeued flit 11938
Requeued flit 9959
Requeued flit 9430
Requeued flit 11672
Requeued flit 10964
Requeued flit 11318
Requeued flit 11930
Requeued flit 10769
Requeued flit 10235
Requeued flit 9428
Requeued flit 12451
Requeued flit 9261
Requeued flit 11239
Requeued flit 12556
Requeued flit 10608
Requeued flit 8534
Requeued flit 12283
Requeued flit 9012
Requeued flit 12614
Requeued flit 11027
Requeued flit 9706
Requeued flit 11384
Requeued flit 12248
Requeued flit 10303
Requeued flit 9589
Requeued flit 9796
Requeued flit 10422
Requeued flit 12639
Requeued flit 10171
Requeued flit 9965
Requeued flit 10030
Requeued flit 11914
Requeued flit 10768
Requeued flit 9310
Requeued flit 12291
Requeued flit 10775
Requeued flit 11369
Requeued flit 12420
Requeued flit 9008
Requeued flit 10878
Requeued flit 11848
Requeued flit 11851
Requeued flit 10953
Requeued flit 10337
Requeued flit 12327
Requeued flit 9346
Requeued flit 12755
Requeued flit 12624
Requeued flit 10347
Requeued flit 9368
Requeued flit 7710
Requeued flit 9610
Requeued flit 10049
Requeued flit 11173
Requeued flit 12850
Requeued flit 11067
Requeued flit 12315
Requeued flit 12208
Requeued flit 7978
Requeued flit 12529
Requeued flit 11913
Requeued flit 10957
Requeued flit 10671
Requeued flit 9559
Requeued flit 12916
Requeued flit 11687
Requeued flit 12361
Requeued flit 10195
Requeued flit 11717
Requeued flit 10056
Requeued flit 12772
Requeued flit 12423
Requeued flit 11078
Requeued flit 12995
Requeued flit 12098
Requeued flit 10907
Requeued flit 10976
Requeued flit 13054
Requeued flit 10643
Requeued flit 10885
Requeued flit 11341
Requeued flit 11721
Requeued flit 10790
Requeued flit 11768
Requeued flit 10718
Requeued flit 12654
Requeued flit 12444
Requeued flit 10559
Requeued flit 12559
Requeued flit 10214
Requeued flit 10296
Requeued flit 8968
Requeued flit 8923
Requeued flit 12219
Requeued flit 10806
Requeued flit 10928
Requeued flit 13123
Requeued flit 10701
Requeued flit 10732
Requeued flit 10597
Requeued flit 12966
Requeued flit 12519
Requeued flit 11591
Requeued flit 9221
Requeued flit 11395
Requeued flit 9640
Requeued flit 11433
Requeued flit 12691
Requeued flit 12378
Requeued flit 12560
Requeued flit 10979
Requeued flit 11936
Requeued flit 12360
Requeued flit 11374
Requeued flit 9852
Requeued flit 12346
Requeued flit 13080
Requeued flit 12920
Requeued flit 10210
Requeued flit 13295
Requeued flit 11045
Requeued flit 11502
Requeued flit 11497
Requeued flit 13225
Requeued flit 11370
Requeued flit 10748
Requeued flit 11425
Requeued flit 11944
Requeued flit 12983
Requeued flit 10111
Requeued flit 12364
Requeued flit 10823
Requeued flit 12021
Requeued flit 8918
Requeued flit 12728
Requeued flit 12254
Requeued flit 12098
Requeued flit 11785
Requeued flit 12357
Requeued flit 10705
Requeued flit 12901
Requeued flit 10893
Requeued flit 13008
Requeued flit 8534
Requeued flit 13051
Requeued flit 12079
Requeued flit 12215
Requeued flit 13254
Requeued flit 13177
Requeued flit 13344
Requeued flit 8389
Requeued flit 9027
Requeued flit 8395
Requeued flit 12795
Requeued flit 10345
Requeued flit 9404
Requeued flit 10842
Requeued flit 12175
Requeued flit 10819
Requeued flit 13408
Requeued flit 10193
Requeued flit 10584
Requeued flit 13362
Requeued flit 12652
Requeued flit 10494
Requeued flit 10921
Requeued flit 12132
Requeued flit 13439
Requeued flit 12675
Requeued flit 11735
Requeued flit 11357
Requeued flit 13521
Requeued flit 12770
Requeued flit 13183
Requeued flit 12445
Requeued flit 11728
Requeued flit 11552
Requeued flit 8608
Requeued flit 11855
Requeued flit 13499
Requeued flit 13412
Requeued flit 12814
Requeued flit 11314
Requeued flit 10030
Requeued flit 10323
Requeued flit 11120
Requeued flit 13267
Requeued flit 11837
Requeued flit 10891
Requeued flit 11878
Requeued flit 10651
Requeued flit 13682
Requeued flit 13338
Requeued flit 12959
Requeued flit 10874
Requeued flit 12446
Requeued flit 13716
Requeued flit 11108
Requeued flit 10945
Requeued flit 11687
Requeued flit 11673
Requeued flit 10667
Requeued flit 10901
Requeued flit 13685
Requeued flit 11615
Requeued flit 13280
Requeued flit 12245
Requeued flit 10286
Requeued flit 12481
Requeued flit 10522
Requeued flit 12912
Requeued flit 11038
Requeued flit 13802
Requeued flit 11908
Requeued flit 13669
Requeued flit 13818
Requeued flit 12198
Requeued flit 11997
Requeued flit 11777
Requeued flit 13129
Requeued flit 11232
Requeued flit 11838
Requeued flit 13211
Requeued flit 12402
Requeued flit 12517
Requeued flit 12590
Requeued flit 13591
Requeued flit 9143
Requeued flit 11262
Requeued flit 11603
Requeued flit 12297
Requeued flit 12364
Requeued flit 12948
Requeued flit 12211
Requeued flit 12248
Requeued flit 11638
Requeued flit 10215
Requeued flit 12413
Requeued flit 10829
Requeued flit 11803
Requeued flit 12229
Requeued flit 13625
Requeued flit 13985
Requeued flit 13951
Requeued flit 8970
Requeued flit 11300
Requeued flit 11648
Requeued flit 13440
Requeued flit 10897
Requeued flit 11508
Requeued flit 9099
Requeued flit 11819
Requeued flit 14065
Requeued flit 13686
Requeued flit 12639
Requeued flit 11543
Requeued flit 10711
Requeued flit 11575
Requeued flit 14002
Requeued flit 11932
Requeued flit 13615
Requeued flit 13015
Requeued flit 12511
Requeued flit 13991
Requeued flit 11888
Requeued flit 14046
Requeued flit 10021
Requeued flit 10368
Requeued flit 12961
Requeued flit 14131
Requeued flit 14175
Requeued flit 11875
Requeued flit 14016
Requeued flit 9144
Requeued flit 13098
Requeued flit 12721
Requeued flit 12816
Requeued flit 14164
Requeued flit 12519
Requeued flit 14209
Requeued flit 14110
Requeued flit 13053
Requeued flit 13245
Requeued flit 12728
Requeued flit 10868
Requeued flit 13811
Requeued flit 12547
Requeued flit 13876
Requeued flit 11747
Requeued flit 12540
Requeued flit 12525
Requeued flit 13522
Requeued flit 11919
Requeued flit 13638
Requeued flit 13442
Requeued flit 10138
Requeued flit 14207
Requeued flit 13758
Requeued flit 11471
Requeued flit 13772
Requeued flit 14101
Requeued flit 11542
Requeued flit 14137
Requeued flit 14108
Requeued flit 11877
Requeued flit 12275
Requeued flit 12313
Requeued flit 10772
Requeued flit 12890
Requeued flit 11770
Requeued flit 14347
Requeued flit 11077
Requeued flit 13206
Requeued flit 11682
Requeued flit 14253
Requeued flit 10065
Requeued flit 12735
Requeued flit 12934
Requeued flit 12931
Requeued flit 12335
Requeued flit 12539
Requeued flit 14305
Requeued flit 11040
Requeued flit 12572
Requeued flit 11697
Requeued flit 12544
Requeued flit 13598
Requeued flit 12904
Requeued flit 14272
Requeued flit 14237
Requeued flit 14499
Requeued flit 13046
Requeued flit 13588
Requeued flit 9705
Requeued flit 11568
Requeued flit 13289
Requeued flit 12695
Requeued flit 11601
Requeued flit 13504
Requeued flit 14534
Requeued flit 12387
Requeued flit 14447
Requeued flit 11295
Requeued flit 11683
Requeued flit 12626
Requeued flit 14391
Requeued flit 12782
Requeued flit 10601
Requeued flit 11956
Requeued flit 13181
Requeued flit 14592
Requeued flit 14464
Requeued flit 14639
Requeued flit 13298
Requeued flit 12045
Requeued flit 12905
Requeued flit 13668
Requeued flit 14554
Requeued flit 14246
Requeued flit 14537
Requeued flit 13741
Requeued flit 13817
Requeued flit 10502
Requeued flit 13994
Requeued flit 14675
Requeued flit 12323
Requeued flit 14228
Requeued flit 10138
Requeued flit 13496
Requeued flit 13619
Requeued flit 12238
Requeued flit 10521
Requeued flit 13784
Requeued flit 14741
Requeued flit 12416
Requeued flit 9638
Requeued flit 13154
Requeued flit 12603
Requeued flit 12328
Requeued flit 13660
Requeued flit 11504
Requeued flit 14810
Requeued flit 12809
Requeued flit 13235
Requeued flit 14684
Requeued flit 12502
Requeued flit 12721
Requeued flit 13955
Requeued flit 10634
Requeued flit 14662
Requeued flit 14464
Requeued flit 11722
Requeued flit 14783
Requeued flit 13513
Requeued flit 13084
Requeued flit 14807
Requeued flit 13814
Requeued flit 11871
Requeued flit 14979
Requeued flit 14472
Requeued flit 12918
Requeued flit 14871
Requeued flit 13297
Requeued flit 11765
Requeued flit 12878
Requeued flit 12670
Requeued flit 12710
Requeued flit 10521
Requeued flit 14898
Requeued flit 10399
Requeued flit 11384
Requeued flit 14060
Requeued flit 11760
Requeued flit 12056
Requeued flit 12833
Requeued flit 11728
Requeued flit 14852
Requeued flit 12234
Requeued flit 10973
Requeued flit 14981
Requeued flit 14533
Requeued flit 9861
Requeued flit 13349
Requeued flit 15004
Requeued flit 13172
Requeued flit 12855
Requeued flit 13799
Requeued flit 11733
Requeued flit 14138
Requeued flit 14268
Requeued flit 13255
Requeued flit 11582
Requeued flit 14677
Requeued flit 12952
Requeued flit 15091
Requeued flit 13289
Requeued flit 9781
Requeued flit 15076
Requeued flit 13539
Requeued flit 13929
Requeued flit 14606
Requeued flit 12058
Requeued flit 14831
Requeued flit 14067
Requeued flit 15013
Requeued flit 14334
Requeued flit 15259
Requeued flit 15067
Requeued flit 13363
Requeued flit 14697
Requeued flit 14453
Requeued flit 13274
Requeued flit 12306
Requeued flit 14744
Requeued flit 11108
Requeued flit 14743
Requeued flit 14815
Requeued flit 14220
Requeued flit 14450
Requeued flit 13886
Requeued flit 13777
Requeued flit 15306
Requeued flit 11756
Requeued flit 12349
Requeued flit 13733
Requeued flit 13548
Requeued flit 15146
Requeued flit 11875
Requeued flit 15392
Requeued flit 15216
Requeued flit 12942
Requeued flit 13908
Requeued flit 11929
Requeued flit 14323
Requeued flit 15323
Requeued flit 15367
Requeued flit 13386
Requeued flit 14027
Requeued flit 15230
Requeued flit 15410
Requeued flit 15352
Requeued flit 15109
Requeued flit 15208
Requeued flit 15277
Requeued flit 15278
Requeued flit 14014
Requeued flit 15019
Requeued flit 14582
Requeued flit 13163
Requeued flit 13025
Requeued flit 12058
Requeued flit 14746
Requeued flit 13021
Requeued flit 13687
Requeued flit 14994
Requeued flit 14963
Requeued flit 13662
Requeued flit 14314
Requeued flit 13850
Requeued flit 15168
Requeued flit 11250
Requeued flit 11937
Requeued flit 15279
Requeued flit 11575
Requeued flit 15488
Requeued flit 11582
Requeued flit 15528
Requeued flit 12638
Requeued flit 15505
Requeued flit 13066
Requeued flit 12946
Requeued flit 12079
Requeued flit 12925
Requeued flit 14494
Requeued flit 14376
Requeued flit 15076
Requeued flit 13992
Requeued flit 12585
Requeued flit 14500
Requeued flit 10674
Requeued flit 15602
Requeued flit 11587
Requeued flit 11957
Requeued flit 11422
Requeued flit 13254
Requeued flit 15524
Requeued flit 13941
Requeued flit 12259
Requeued flit 13912
Requeued flit 13743
Requeued flit 10930
Requeued flit 15071
Requeued flit 14435
Requeued flit 15578
Requeued flit 14359
Requeued flit 13889
Requeued flit 14470
Requeued flit 14746
Requeued flit 14204
Requeued flit 14305
Requeued flit 12479
Requeued flit 14831
Requeued flit 12135
Requeued flit 11482
Requeued flit 15468
Requeued flit 15669
Requeued flit 14407
Requeued flit 14557
Requeued flit 15105
Requeued flit 15685
Requeued flit 13339
Requeued flit 15748
Requeued flit 15246
Requeued flit 15222
Requeued flit 12885
Requeued flit 12615
Requeued flit 14486
Requeued flit 15004
Requeued flit 12805
Requeued flit 13796
Requeued flit 15597
Requeued flit 12729
Requeued flit 15877
Requeued flit 12206
Requeued flit 15537
Requeued flit 14456
Requeued flit 14392
Requeued flit 11898
Requeued flit 15555
Requeued flit 15426
Requeued flit 11801
Requeued flit 13021
Requeued flit 12939
Requeued flit 13560
Requeued flit 15003
Requeued flit 11737
Requeued flit 14491
Requeued flit 15116
Requeued flit 10832
Requeued flit 13914
Requeued flit 13498
Requeued flit 15456
Requeued flit 12046
Requeued flit 15944
Requeued flit 13272
Requeued flit 14888
Requeued flit 12677
Requeued flit 15349
Requeued flit 15613
Requeued flit 15976
Requeued flit 10893
Requeued flit 14178
Requeued flit 13133
Requeued flit 13558
Requeued flit 14458
Requeued flit 16019
Requeued flit 14287
Requeued flit 14161
Requeued flit 15339
Requeued flit 15957
Requeued flit 15929
Requeued flit 16047
Requeued flit 12528
Requeued flit 11841
Requeued flit 15446
Requeued flit 13437
Requeued flit 14326
Requeued flit 15525
Requeued flit 13235
Requeued flit 14680
Requeued flit 14887
Requeued flit 13714
Requeued flit 13831
Requeued flit 13108
Requeued flit 14773
Requeued flit 16089
Requeued flit 16057
Requeued flit 15356
Requeued flit 13424
Requeued flit 13657
Requeued flit 16178
Requeued flit 15574
Requeued flit 15346
Requeued flit 12171
Requeued flit 12579
Requeued flit 13345
Requeued flit 14891
Requeued flit 15645
Requeued flit 14335
Requeued flit 14021
Requeued flit 13625
Requeued flit 14650
Requeued flit 16116
Requeued flit 16221
Requeued flit 12139
Requeued flit 14095
Requeued flit 13336
Requeued flit 12972
Requeued flit 16150
Requeued flit 15413
Requeued flit 13914
Requeued flit 12085
Requeued flit 13001
Requeued flit 12861
Requeued flit 14289
Requeued flit 14989
Requeued flit 16017
Requeued flit 14825
Requeued flit 15340
Requeued flit 16179
Requeued flit 15519
Requeued flit 13751
Requeued flit 16055
Requeued flit 14291
Requeued flit 14716
Requeued flit 15797
Requeued flit 15701
Requeued flit 16223
Requeued flit 15093
Requeued flit 14805
Requeued flit 16381
Requeued flit 14357
Requeued flit 15590
Requeued flit 13269
Requeued flit 16277
Requeued flit 15817
Requeued flit 14987
Requeued flit 14051
Requeued flit 13442
Requeued flit 12457
Requeued flit 16016
Requeued flit 14468
Requeued flit 13515
Requeued flit 13059
Requeued flit 13261
Requeued flit 12139
Requeued flit 15728
Requeued flit 15083
Requeued flit 13352
Requeued flit 11672
Requeued flit 16110
Requeued flit 12114
Requeued flit 14546
Requeued flit 13649
Requeued flit 12418
Requeued flit 13344
Requeued flit 12248
Requeued flit 11807
Requeued flit 16080
Requeued flit 14932
Requeued flit 16484
Requeued flit 15053
Requeued flit 15288
Requeued flit 13195
Requeued flit 12691
Requeued flit 13319
Requeued flit 13228
Requeued flit 16636
Requeued flit 14438
Requeued flit 15029
Requeued flit 16679
Requeued flit 16651
Requeued flit 13236
Requeued flit 14270
Requeued flit 14025
Requeued flit 15872
Requeued flit 15234
Requeued flit 13925
Requeued flit 16730
Requeued flit 13021
Requeued flit 14922
Requeued flit 16212
Requeued flit 14296
Requeued flit 14820
Requeued flit 16456
Requeued flit 13602
Requeued flit 13816
Requeued flit 16705
Requeued flit 13581
Requeued flit 14551
Requeued flit 11721
Requeued flit 16759
Requeued flit 16699
Requeued flit 16765
Requeued flit 14299
Requeued flit 15084
Requeued flit 15436
Requeued flit 15585
Requeued flit 16722
Requeued flit 16796
Requeued flit 16835
Requeued flit 14578
Requeued flit 16865
Requeued flit 15798
Requeued flit 16053
Requeued flit 11064
Requeued flit 14968
Requeued flit 12406
Requeued flit 13336
Requeued flit 14660
Requeued flit 16864
Requeued flit 12803
Requeued flit 14673
Requeued flit 14520
Requeued flit 16711
Requeued flit 14036
Requeued flit 16819
Requeued flit 16855
Requeued flit 16492
Requeued flit 14232
Requeued flit 15845
Requeued flit 16971
Requeued flit 17025
Requeued flit 15512
Requeued flit 13187
Requeued flit 12879
Requeued flit 14625
Requeued flit 14048
Requeued flit 17062
Requeued flit 12872
Requeued flit 15536
Requeued flit 17031
Requeued flit 17035
Requeued flit 16900
Requeued flit 14980
Requeued flit 13190
Requeued flit 15017
Requeued flit 16461
Requeued flit 14995
Requeued flit 15371
Requeued flit 14624
Requeued flit 17000
Requeued flit 17112
Requeued flit 17118
Requeued flit 16287
Requeued flit 17091
Requeued flit 15872
Requeued flit 11928
Requeued flit 12410
Requeued flit 15223
Requeued flit 17139
Requeued flit 15514
Requeued flit 17151
Requeued flit 15354
Requeued flit 12353
Requeued flit 14965
Requeued flit 15033
Requeued flit 16923
Requeued flit 16574
Requeued flit 12936
Requeued flit 14826
Requeued flit 15855
Requeued flit 14648
Requeued flit 14528
Requeued flit 17113
Requeued flit 14951
Requeued flit 12237
Requeued flit 16863
Requeued flit 14884
Requeued flit 15542
Requeued flit 16545
Requeued flit 15654
Requeued flit 17201
Requeued flit 17056
Requeued flit 16059
Requeued flit 16146
Requeued flit 15394
Requeued flit 15194
Requeued flit 11867
Requeued flit 15474
Requeued flit 15417
Requeued flit 14594
Requeued flit 17364
Requeued flit 15667
Requeued flit 13603
Requeued flit 16021
Requeued flit 15507
Requeued flit 13687
Requeued flit 16581
Requeued flit 14320
Requeued flit 15865
Requeued flit 13679
Requeued flit 12865
Requeued flit 15765
Requeued flit 14546
Requeued flit 16032
Requeued flit 15635
Requeued flit 17462
Requeued flit 13297
Requeued flit 17475
Requeued flit 17441
Requeued flit 17468
Requeued flit 11246
Requeued flit 13229
Requeued flit 11541
Requeued flit 12379
Requeued flit 14335
Requeued flit 16803
Requeued flit 17378
Requeued flit 14506
Requeued flit 15536
Requeued flit 16962
Requeued flit 17153
Requeued flit 17541
Requeued flit 15500
Requeued flit 16013
Requeued flit 15141
Requeued flit 14305
Requeued flit 12600
Requeued flit 15303
Requeued flit 17573
Requeued flit 16126
Requeued flit 16597
Requeued flit 14385
Requeued flit 16310
Requeued flit 17652
Requeued flit 13652
Requeued flit 17527
Requeued flit 12709
Requeued flit 16870
Requeued flit 17406
Requeued flit 13955
Requeued flit 12418
Requeued flit 17604
Requeued flit 16338
Requeued flit 17534
Requeued flit 13608
Requeued flit 16791
Requeued flit 17459
Requeued flit 15508
Requeued flit 16994
Requeued flit 17647
Requeued flit 16014
Requeued flit 14732
Requeued flit 15312
Requeued flit 17066
Requeued flit 14246
Requeued flit 15195
Requeued flit 14609
Requeued flit 17433
Requeued flit 14809
Requeued flit 14239
Requeued flit 17636
Requeued flit 16445
Requeued flit 17524
Requeued flit 17243
Requeued flit 16246
Requeued flit 15651
Requeued flit 17077
Requeued flit 15489
Requeued flit 15178
Requeued flit 15161
Requeued flit 17661
Requeued flit 14512
Requeued flit 13993
Requeued flit 17757
Requeued flit 14000
Requeued flit 17872
Requeued flit 13226
Requeued flit 16348
Requeued flit 17192
Requeued flit 17889
Requeued flit 16974
Requeued flit 15329
Requeued flit 13338
Requeued flit 13043
Requeued flit 15634
Requeued flit 16217
Requeued flit 17994
Requeued flit 16769
Requeued flit 14626
Requeued flit 15650
Requeued flit 15801
Requeued flit 15468
Requeued flit 17876
Requeued flit 14634
Requeued flit 15902
Requeued flit 14616
Requeued flit 16698
Requeued flit 17786
Requeued flit 15722
Requeued flit 15848
Requeued flit 17113
Requeued flit 17688
Requeued flit 14903
Requeued flit 18102
Requeued flit 17999
Requeued flit 18006
Requeued flit 16647
Requeued flit 14531
Requeued flit 17199
Requeued flit 16269
Requeued flit 18169
Requeued flit 15277
Requeued flit 17389
Requeued flit 17866
Requeued flit 15024
Requeued flit 15179
Requeued flit 17466
Requeued flit 18092
Requeued flit 17696
Requeued flit 18131
Requeued flit 16492
Requeued flit 16520
Requeued flit 17761
Requeued flit 14173
Requeued flit 17121
Requeued flit 17124
Requeued flit 17816
Requeued flit 17399
Requeued flit 17196
Requeued flit 16312
Requeued flit 16686
Requeued flit 14940
Requeued flit 18157
Requeued flit 15501
Requeued flit 16920
Requeued flit 18283
Requeued flit 15706
Requeued flit 16022
Requeued flit 15894
Requeued flit 15241
Requeued flit 16467
Requeued flit 17969
Requeued flit 14855
Requeued flit 17377
Requeued flit 15972
Requeued flit 13723
Requeued flit 16402
Requeued flit 17772
Requeued flit 13623
Requeued flit 15691
Requeued flit 17726
Requeued flit 15718
Requeued flit 17957
Requeued flit 17187
Requeued flit 17480
Requeued flit 15732
Requeued flit 16924
Requeued flit 14677
Requeued flit 18207
Requeued flit 15350
Requeued flit 18336
Requeued flit 15772
Requeued flit 15708
Requeued flit 15963
Requeued flit 16046
Requeued flit 14782
Requeued flit 18072
Requeued flit 17067
Requeued flit 17640
Requeued flit 18517
Requeued flit 17447
Requeued flit 18372
Requeued flit 13790
Requeued flit 15950
Requeued flit 14818
Requeued flit 16433
Requeued flit 15279
Requeued flit 17723
Requeued flit 18475
Requeued flit 16064
Requeued flit 18408
Requeued flit 16300
Requeued flit 16425
Requeued flit 18542
Requeued flit 18355
Requeued flit 14722
Requeued flit 16057
Requeued flit 18406
Requeued flit 17165
Requeued flit 16645
Requeued flit 15558
Requeued flit 14192
Requeued flit 15200
Requeued flit 17826
Requeued flit 18571
Requeued flit 16148
Requeued flit 16940
Requeued flit 15949
Requeued flit 18502
Requeued flit 18075
Requeued flit 18691
Requeued flit 18360
Requeued flit 17360
Requeued flit 15795
Requeued flit 16900
Requeued flit 17243
Requeued flit 18762
Requeued flit 16680
Requeued flit 13985
Requeued flit 18657
Requeued flit 17054
Requeued flit 17063
Requeued flit 15877
Requeued flit 14760
Requeued flit 13266
Requeued flit 15346
Requeued flit 15241
Requeued flit 15581
Requeued flit 18770
Requeued flit 16420
Requeued flit 15307
Requeued flit 15210
Requeued flit 16609
Requeued flit 14599
Requeued flit 14929
Requeued flit 18674
Requeued flit 18822
Requeued flit 14102
Requeued flit 16655
Requeued flit 18917
Requeued flit 18507
Requeued flit 14394
Requeued flit 14983
Requeued flit 15914
Requeued flit 15871
Requeued flit 15514
Requeued flit 16846
Requeued flit 15358
Requeued flit 15226
Requeued flit 17060
Requeued flit 16514
Requeued flit 15545
Requeued flit 18803
Requeued flit 16980
Requeued flit 19007
Requeued flit 18890
Requeued flit 18738
Requeued flit 16426
Requeued flit 16421
Requeued flit 14845
Requeued flit 19025
Requeued flit 17042
Requeued flit 17995
Requeued flit 18159
Requeued flit 18932
Requeued flit 17970
Requeued flit 18944
Requeued flit 18147
Requeued flit 15414
Requeued flit 19140
Requeued flit 18585
Requeued flit 16841
Requeued flit 16245
Requeued flit 16742
Requeued flit 19130
Requeued flit 17397
Requeued flit 19146
Requeued flit 15394
Requeued flit 13473
Requeued flit 17475
Requeued flit 16944
Requeued flit 16727
Requeued flit 16499
Requeued flit 17093
Requeued flit 16513
Requeued flit 15253
Requeued flit 16786
Requeued flit 16911
Requeued flit 15930
Requeued flit 16925
Requeued flit 17640
Requeued flit 15423
Requeued flit 15799
Requeued flit 16234
Requeued flit 17134
Requeued flit 16441
Requeued flit 17076
Requeued flit 19143
Requeued flit 19192
Requeued flit 17368
Requeued flit 19066
Requeued flit 19280
Requeued flit 15727
Requeued flit 19046
Requeued flit 15734
Requeued flit 16857
Requeued flit 14527
Requeued flit 16404
Requeued flit 18315
Requeued flit 19089
Requeued flit 18949
Requeued flit 19317
Requeued flit 17443
Requeued flit 16091
Requeued flit 16589
Requeued flit 17589
Requeued flit 18039
Requeued flit 17434
Requeued flit 19109
Requeued flit 15791
Requeued flit 17044
Requeued flit 18560
Requeued flit 16871
Requeued flit 18065
Requeued flit 15272
Requeued flit 17065
Requeued flit 16741
Requeued flit 17241
Requeued flit 17136
Requeued flit 18159
Requeued flit 18371
Requeued flit 18190
Requeued flit 19479
Requeued flit 19367
Requeued flit 16419
Requeued flit 19309
Requeued flit 15465
Requeued flit 13475
Requeued flit 17611
Requeued flit 19261
Requeued flit 16805
Requeued flit 15094
Requeued flit 15400
Requeued flit 19517
Requeued flit 15638
Requeued flit 19549
Requeued flit 19555
Requeued flit 18346
Requeued flit 16943
Requeued flit 17282
Requeued flit 16884
Requeued flit 16181
Requeued flit 16936
Requeued flit 17593
Requeued flit 17056
Requeued flit 19264
Requeued flit 19739
Requeued flit 17770
Requeued flit 19389
Requeued flit 17556
Requeued flit 18503
Requeued flit 17832
Requeued flit 19560
Requeued flit 17016
Requeued flit 17090
Requeued flit 19336
Requeued flit 18762
Requeued flit 16009
Requeued flit 15177
Requeued flit 15584
Requeued flit 18295
Requeued flit 18340
Requeued flit 17153
Requeued flit 18562
Requeued flit 15519
Requeued flit 15435
Requeued flit 19094
Requeued flit 13163
Requeued flit 16621
Requeued flit 16907
Requeued flit 13973
Requeued flit 15685
Requeued flit 19759
Requeued flit 12940
Requeued flit 17823
Requeued flit 16252
Requeued flit 16283
Requeued flit 17098
Requeued flit 19756
Requeued flit 17374
Requeued flit 17700
Requeued flit 15664
Requeued flit 14780
Requeued flit 16645
Requeued flit 17547
Requeued flit 19311
Requeued flit 17290
Requeued flit 17505
Requeued flit 17715
Requeued flit 15240
Requeued flit 19947
Requeued flit 19526
Requeued flit 19192
Requeued flit 17192
Requeued flit 18540
Requeued flit 14036
Requeued flit 19773
Requeued flit 17852
Requeued flit 17627
Requeued flit 19065
Requeued flit 17041
Requeued flit 18527
Requeued flit 19058
Requeued flit 17695
Requeued flit 16527
Requeued flit 17803
Requeued flit 17440
Requeued flit 18330
Requeued flit 16159
Requeued flit 20143
Requeued flit 18270
Requeued flit 16674
Requeued flit 18467
Requeued flit 18524
Requeued flit 17822
Requeued flit 17907
Requeued flit 19873
Requeued flit 19942
Requeued flit 20105
Requeued flit 20047
Requeued flit 16137
Requeued flit 14357
Requeued flit 16130
Requeued flit 19310
Requeued flit 18324
Requeued flit 19824
Requeued flit 20130
Requeued flit 16289
Requeued flit 19923
Requeued flit 17450
Requeued flit 18116
Requeued flit 20192
Requeued flit 17780
Requeued flit 19773
Requeued flit 15542
Requeued flit 15551
Requeued flit 16351
Requeued flit 18785
Requeued flit 17973
Requeued flit 19336
Requeued flit 18289
Requeued flit 20291
Requeued flit 20293
Requeued flit 18616
Requeued flit 16642
Requeued flit 20328
Requeued flit 17947
Requeued flit 18718
Requeued flit 19269
Requeued flit 19165
Requeued flit 20322
Requeued flit 16558
Requeued flit 18589
Requeued flit 18474
Requeued flit 20168
Requeued flit 14940
Requeued flit 16994
Requeued flit 14008
Requeued flit 20428
Requeued flit 18849
Requeued flit 16357
Requeued flit 18686
Requeued flit 20460
Requeued flit 17813
Requeued flit 19098
Requeued flit 19641
Requeued flit 20341
Requeued flit 20214
Requeued flit 16341
Requeued flit 16896
Requeued flit 18014
Requeued flit 17720
Requeued flit 16636
Requeued flit 20256
Requeued flit 19773
Requeued flit 19166
Requeued flit 17831
Requeued flit 20499
Requeued flit 16047
Requeued flit 20545
Requeued flit 19491
Requeued flit 16891
Requeued flit 16629
Requeued flit 19296
Requeued flit 18484
Requeued flit 16627
Requeued flit 17563
Requeued flit 17318
Requeued flit 15625
Requeued flit 17665
Requeued flit 18847
Requeued flit 19933
Requeued flit 15962
Requeued flit 17432
Requeued flit 15969
Requeued flit 16619
Requeued flit 13858
Requeued flit 17923
Requeued flit 19066
Requeued flit 17629
Requeued flit 20359
Requeued flit 20390
Requeued flit 19177
Requeued flit 18403
Requeued flit 19161
Requeued flit 17981
Requeued flit 20064
Requeued flit 16614
Requeued flit 19341
Requeued flit 19418
Requeued flit 18125
Requeued flit 20740
Requeued flit 18926
Requeued flit 20785
Requeued flit 17207
Requeued flit 20645
Requeued flit 16524
Requeued flit 18259
Requeued flit 18312
Requeued flit 13976
Requeued flit 20240
Requeued flit 20712
Requeued flit 19756
Requeued flit 18592
Requeued flit 18305
Requeued flit 16729
Requeued flit 20822
Requeued flit 20823
Requeued flit 19214
Requeued flit 19693
Requeued flit 19202
Requeued flit 16129
Requeued flit 15629
Requeued flit 17917
Requeued flit 16790
Requeued flit 20815
Requeued flit 16789
Requeued flit 16909
Requeued flit 20918
Requeued flit 19837
Requeued flit 19813
Requeued flit 14106
Requeued flit 18184
Requeued flit 18493
Requeued flit 18225
Requeued flit 20704
Requeued flit 19084
Requeued flit 16598
Requeued flit 17177
Requeued flit 19069
Requeued flit 20580
Requeued flit 17626
Requeued flit 20828
Requeued flit 15910
Requeued flit 21038
Requeued flit 16585
Requeued flit 17089
Requeued flit 18888
Requeued flit 17340
Requeued flit 20017
Requeued flit 19624
Requeued flit 17722
Requeued flit 20948
Requeued flit 16731
Requeued flit 18462
Requeued flit 17756
Requeued flit 20188
Requeued flit 21107
Requeued flit 18666
Requeued flit 18620
Requeued flit 21026
Requeued flit 18205
Requeued flit 20546
Requeued flit 21083
Requeued flit 20846
Requeued flit 20947
Requeued flit 16797
Requeued flit 20612
Requeued flit 21088
Requeued flit 20705
Requeued flit 17304
Requeued flit 21108
Requeued flit 18890
Requeued flit 16702
Requeued flit 16398
Requeued flit 18547
Requeued flit 19522
Requeued flit 15487
Requeued flit 20020
Requeued flit 18799
Requeued flit 18915
Requeued flit 18394
Requeued flit 17690
Requeued flit 21171
Requeued flit 21147
Requeued flit 19092
Requeued flit 18931
Requeued flit 18512
Requeued flit 16187
Requeued flit 18873
Requeued flit 21187
Requeued flit 21157
Requeued flit 16619
Requeued flit 19832
Requeued flit 16503
Requeued flit 19439
Requeued flit 19509
Requeued flit 18719
Requeued flit 18656
Requeued flit 15900
Requeued flit 18992
Requeued flit 19370
Requeued flit 19617
Requeued flit 15016
Requeued flit 17241
Requeued flit 18466
Requeued flit 19932
Requeued flit 19889
Requeued flit 21287
Requeued flit 19261
Requeued flit 18239
Requeued flit 18722
Requeued flit 18890
Requeued flit 20040
Requeued flit 18964
Requeued flit 18770
Requeued flit 21403
Requeued flit 20734
Requeued flit 21491
Requeued flit 16729
Requeued flit 21168
Requeued flit 18155
Requeued flit 19015
Requeued flit 19376
Requeued flit 19955
Requeued flit 20410
Requeued flit 16446
Requeued flit 18233
Requeued flit 21333
Requeued flit 19445
Requeued flit 17488
Requeued flit 18525
Requeued flit 21509
Requeued flit 17504
Requeued flit 21429
Requeued flit 19835
Requeued flit 18716
Requeued flit 21306
Requeued flit 18086
Requeued flit 21156
Requeued flit 16525
Requeued flit 20518
Requeued flit 18776
Requeued flit 19144
Requeued flit 18267
Requeued flit 16968
Requeued flit 18736
Requeued flit 19405
Requeued flit 21457
Requeued flit 20557
Requeued flit 18465
Requeued flit 19613
Requeued flit 19053
Requeued flit 20163
Requeued flit 17985
Requeued flit 19181
Requeued flit 21669
Requeued flit 20520
Requeued flit 20178
Requeued flit 19938
Requeued flit 17293
Requeued flit 18845
Requeued flit 17114
Requeued flit 19754
Requeued flit 21277
Requeued flit 20229
Requeued flit 19742
Requeued flit 21700
Requeued flit 21593
Requeued flit 17223
Requeued flit 17812
Requeued flit 20165
Requeued flit 20450
Requeued flit 18706
Requeued flit 20144
Requeued flit 20786
Requeued flit 19509
Requeued flit 18911
Requeued flit 21887
Requeued flit 18116
Requeued flit 17224
Requeued flit 19123
Requeued flit 19427
Requeued flit 20320
Requeued flit 17394
Requeued flit 21952
Requeued flit 19314
Requeued flit 21985
Requeued flit 19327
Requeued flit 19202
Requeued flit 18678
Requeued flit 17537
Requeued flit 16753
Requeued flit 21888
Requeued flit 17755
Requeued flit 20950
Requeued flit 19309
Requeued flit 17061
Requeued flit 21658
Requeued flit 18111
Requeued flit 18187
Requeued flit 22062
Requeued flit 20210
Requeued flit 13228
Requeued flit 20710
Requeued flit 18816
Requeued flit 22108
Requeued flit 22157
Requeued flit 21662
Requeued flit 22161
Requeued flit 17804
Requeued flit 19282
Requeued flit 20360
Requeued flit 17801
Requeued flit 20701
Requeued flit 22166
Requeued flit 19754
Requeued flit 19496
Requeued flit 17109
Requeued flit 20504
Requeued flit 21527
Requeued flit 22200
Requeued flit 17326
Requeued flit 19534
Requeued flit 22142
Requeued flit 21220
Requeued flit 19988
Requeued flit 17438
Requeued flit 21066
Requeued flit 16194
Requeued flit 19863
Requeued flit 19133
Requeued flit 20975
Requeued flit 17955
Requeued flit 20577
Requeued flit 21529
Requeued flit 17812
Requeued flit 19760
Requeued flit 19422
Requeued flit 19805
Requeued flit 20913
Requeued flit 18971
Requeued flit 22103
Requeued flit 15901
Requeued flit 18263
Requeued flit 18750
Requeued flit 19387
Requeued flit 22386
Requeued flit 20971
Requeued flit 21629
Requeued flit 22297
Requeued flit 22204
Requeued flit 21460
Requeued flit 19113
Requeued flit 22409
Requeued flit 18832
Requeued flit 18076
Requeued flit 20751
Requeued flit 21261
Requeued flit 22399
Requeued flit 22235
Requeued flit 20560
Requeued flit 20907
Requeued flit 21989
Requeued flit 19374
Requeued flit 17655
Requeued flit 19572
Requeued flit 19196
Requeued flit 22250
Requeued flit 22385
Requeued flit 19019
Requeued flit 21345
Requeued flit 22465
Requeued flit 22467
Requeued flit 22438
Requeued flit 20814
Requeued flit 22451
Requeued flit 22303
Requeued flit 19112
Requeued flit 22101
Requeued flit 18109
Requeued flit 19056
Requeued flit 19016
Requeued flit 21351
Requeued flit 21284
Requeued flit 18191
Requeued flit 20471
Requeued flit 18787
Requeued flit 22610
Requeued flit 16351
Requeued flit 22447
Requeued flit 22192
Requeued flit 20530
Requeued flit 19673
Requeued flit 19805
Requeued flit 19920
Requeued flit 21372
Requeued flit 21302
Requeued flit 19108
Requeued flit 19639
Requeued flit 14291
Requeued flit 22738
Requeued flit 20961
Requeued flit 17476
Requeued flit 22144
Requeued flit 19897
Requeued flit 16866
Requeued flit 21445
Requeued flit 19766
Requeued flit 21185
Requeued flit 20866
Requeued flit 17702
Requeued flit 20024
Requeued flit 21622
Requeued flit 20771
Requeued flit 22481
Requeued flit 19197
Requeued flit 20470
Requeued flit 22682
Requeued flit 20774
Requeued flit 19440
Requeued flit 22317
Requeued flit 21228
Requeued flit 18609
Requeued flit 22704
Requeued flit 21050
Requeued flit 22794
Requeued flit 22690
Requeued flit 18397
Requeued flit 22894
Requeued flit 19020
Requeued flit 20001
Requeued flit 21755
Requeued flit 20182
Requeued flit 22291
Requeued flit 19373
Requeued flit 22940
Requeued flit 21054
Requeued flit 20068
Requeued flit 21090
Requeued flit 22143
Requeued flit 22533
Requeued flit 21806
Requeued flit 21233
Requeued flit 22676
Requeued flit 17743
Requeued flit 21162
Requeued flit 20479
Requeued flit 18506
Requeued flit 20065
Requeued flit 23031
Requeued flit 23002
Requeued flit 17372
Requeued flit 20296
Requeued flit 19850
Requeued flit 23032
Requeued flit 20179
Requeued flit 21612
Requeued flit 22294
Requeued flit 20197
Requeued flit 19620
Requeued flit 18124
Requeued flit 23022
Requeued flit 21664
Requeued flit 20176
Requeued flit 21397
Requeued flit 19937
Requeued flit 17856
Requeued flit 21552
Requeued flit 18247
Requeued flit 17194
Requeued flit 18005
Requeued flit 20588
Requeued flit 19142
Requeued flit 19006
Requeued flit 23117
Requeued flit 23120
Requeued flit 19690
Requeued flit 20859
Requeued flit 22161
Requeued flit 18250
Requeued flit 23135
Requeued flit 20858
Requeued flit 23239
Requeued flit 22999
Requeued flit 19817
Requeued flit 23174
Requeued flit 21461
Requeued flit 21132
Requeued flit 22766
Requeued flit 21049
Requeued flit 19964
Requeued flit 20444
Requeued flit 20171
Requeued flit 21153
Requeued flit 19851
Requeued flit 20987
Requeued flit 20617
Requeued flit 23138
Requeued flit 18777
Requeued flit 18528
Requeued flit 20724
Requeued flit 20186
Requeued flit 19110
Requeued flit 23229
Requeued flit 17297
Requeued flit 21621
Requeued flit 23247
Requeued flit 21537
Requeued flit 17636
Requeued flit 20312
Requeued flit 20743
Requeued flit 18496
Requeued flit 23254
Requeued flit 20703
Requeued flit 20894
Requeued flit 19200
Requeued flit 23352
Requeued flit 21322
Requeued flit 21790
Requeued flit 22933
Requeued flit 22778
Requeued flit 18953
Requeued flit 21382
Requeued flit 20851
Requeued flit 17447
Requeued flit 23276
Requeued flit 19149
Requeued flit 23395
Requeued flit 20647
Requeued flit 21726
Requeued flit 21779
Requeued flit 21318
Requeued flit 20386
Requeued flit 22483
Requeued flit 22071
Requeued flit 20422
Requeued flit 23580
Requeued flit 19411
Requeued flit 23260
Requeued flit 23597
Requeued flit 20200
Requeued flit 20424
Requeued flit 20949
Requeued flit 19082
Requeued flit 21725
Requeued flit 22975
Requeued flit 23047
Requeued flit 21630
Requeued flit 21993
Requeued flit 21633
Requeued flit 23706
Requeued flit 23570
Requeued flit 19625
Requeued flit 20879
Requeued flit 23001
Requeued flit 23688
Requeued flit 22888
Requeued flit 20005
Requeued flit 22684
Requeued flit 22444
Requeued flit 21412
Requeued flit 22381
Requeued flit 23628
Requeued flit 23558
Requeued flit 21014
Requeued flit 23637
Requeued flit 23692
Requeued flit 23764
Requeued flit 23421
Requeued flit 23785
Requeued flit 23105
Requeued flit 23752
Requeued flit 20567
Requeued flit 22047
Requeued flit 19383
Requeued flit 18220
Requeued flit 18734
Requeued flit 23838
Requeued flit 23710
Requeued flit 22252
Requeued flit 22420
Requeued flit 22251
Requeued flit 23808
Requeued flit 20379
Requeued flit 21220
Requeued flit 23324
Requeued flit 23325
Requeued flit 23784
Requeued flit 18708
Requeued flit 23313
Requeued flit 20352
Requeued flit 18860
Requeued flit 23762
Requeued flit 19604
Requeued flit 22948
Requeued flit 21167
Requeued flit 19489
Requeued flit 18807
Requeued flit 20944
Requeued flit 18939
Requeued flit 17091
Requeued flit 20830
Requeued flit 18891
Requeued flit 22806
Requeued flit 23965
Requeued flit 21452
Requeued flit 22210
Requeued flit 19583
Requeued flit 22788
Requeued flit 19283
Requeued flit 18549
Requeued flit 22852
Requeued flit 20551
Requeued flit 19002
Requeued flit 23053
Requeued flit 23999
Requeued flit 19078
Requeued flit 22685
Requeued flit 23820
Requeued flit 21313
Requeued flit 21852
Requeued flit 19417
Requeued flit 23945
Requeued flit 22548
Requeued flit 19536
Requeued flit 16753
Requeued flit 21376
Requeued flit 24119
Requeued flit 20145
Requeued flit 22971
Requeued flit 22493
Requeued flit 21848
Requeued flit 21778
Requeued flit 18472
Requeued flit 18189
Requeued flit 21429
Requeued flit 18986
Requeued flit 23080
Requeued flit 22976
Requeued flit 20807
Requeued flit 22515
Requeued flit 19498
Requeued flit 19266
Requeued flit 20996
Requeued flit 24226
Requeued flit 24162
Requeued flit 23231
Requeued flit 20919
Requeued flit 21216
Requeued flit 19372
Requeued flit 20383
Requeued flit 20921
Requeued flit 22804
Requeued flit 18109
Requeued flit 19118
Requeued flit 23185
Requeued flit 24204
Requeued flit 21048
Requeued flit 24216
Requeued flit 16553
Requeued flit 24321
Requeued flit 20183
Requeued flit 22281
Requeued flit 21139
Requeued flit 18934
Requeued flit 24279
Requeued flit 24251
Requeued flit 21271
Requeued flit 20993
Requeued flit 24159
Requeued flit 20150
Requeued flit 22565
Requeued flit 23215
Requeued flit 24382
Requeued flit 23673
Requeued flit 19982
Requeued flit 21930
Requeued flit 23106
Requeued flit 24365
Requeued flit 22711
Requeued flit 21623
Requeued flit 23213
Requeued flit 24111
Requeued flit 24421
Requeued flit 21961
Requeued flit 22796
Requeued flit 20479
Requeued flit 18960
Requeued flit 20943
Requeued flit 20802
Requeued flit 21917
Requeued flit 23594
Requeued flit 22164
Requeued flit 20089
Requeued flit 20449
Requeued flit 23891
Requeued flit 20016
Requeued flit 23441
Requeued flit 19749
Requeued flit 17256
Requeued flit 23343
Requeued flit 23067
Requeued flit 21211
Requeued flit 20542
Requeued flit 24411
Requeued flit 24564
Requeued flit 24435
Requeued flit 24030
Requeued flit 24632
Requeued flit 24287
Requeued flit 22553
Requeued flit 17994
Requeued flit 21295
Requeued flit 24552
Requeued flit 21590
Requeued flit 21009
Requeued flit 24596
Requeued flit 20368
Requeued flit 22612
Requeued flit 18150
Requeued flit 19854
Requeued flit 19720
Requeued flit 22803
Requeued flit 19632
Requeued flit 23500
Requeued flit 23577
Requeued flit 18405
Requeued flit 22273
Requeued flit 19748
Requeued flit 19711
Requeued flit 24527
Requeued flit 21597
Requeued flit 24645
Requeued flit 24234
Requeued flit 24278
Requeued flit 19785
Requeued flit 20677
Requeued flit 22027
Requeued flit 21779
Requeued flit 24714
Requeued flit 22761
Requeued flit 19679
Requeued flit 23907
Requeued flit 18858
Requeued flit 24558
Requeued flit 22160
Requeued flit 19598
Requeued flit 20739
Requeued flit 23069
Requeued flit 23502
Requeued flit 23755
Requeued flit 19724
Requeued flit 22991
Requeued flit 20505
Requeued flit 19671
Requeued flit 21279
Requeued flit 16725
Requeued flit 20691
Requeued flit 24891
Requeued flit 19854
Requeued flit 22125
Requeued flit 24874
Requeued flit 19470
Requeued flit 23171
Requeued flit 17917
Requeued flit 21435
Requeued flit 20333
Requeued flit 20628
Requeued flit 20543
Requeued flit 18658
Requeued flit 21836
Requeued flit 19680
Requeued flit 22980
Requeued flit 24945
Requeued flit 23059
Requeued flit 19997
Requeued flit 18440
Requeued flit 25015
Requeued flit 22049
Requeued flit 24765
Requeued flit 24805
Requeued flit 24995
Requeued flit 19784
Requeued flit 21847
Requeued flit 22890
Requeued flit 22790
Requeued flit 24771
Requeued flit 19560
Requeued flit 21463
Requeued flit 20426
Requeued flit 25036
Requeued flit 23281
Requeued flit 19766
Requeued flit 21800
Requeued flit 24974
Requeued flit 24973
Requeued flit 17114
Requeued flit 23057
Requeued flit 21428
Requeued flit 23816
Requeued flit 24417
Requeued flit 20637
Requeued flit 24768
Requeued flit 23951
Requeued flit 24802
Requeued flit 23380
Requeued flit 23062
Requeued flit 18807
Requeued flit 23474
Requeued flit 21942
Requeued flit 23563
Requeued flit 21350
Requeued flit 25177
Requeued flit 21008
Requeued flit 25189
Requeued flit 25058
Requeued flit 22612
Requeued flit 23130
Requeued flit 25194
Requeued flit 24668
Requeued flit 23491
Requeued flit 20484
Requeued flit 25074
Requeued flit 25107
Requeued flit 25209
Requeued flit 24796
Requeued flit 23599
Requeued flit 17438
Requeued flit 23407
Requeued flit 24597
Requeued flit 22173
Requeued flit 21864
[...]
Requeued flit 307262
Requeued flit 299861
Requeued flit 306688
Requeued flit 294131
Requeued flit 343629
Requeued flit 345179
Requeued flit 291315
Requeued flit 298021
Requeued flit 324380
Requeued flit 345252
Requeued flit 295870
Requeued flit 345178
Requeued flit 345183
Requeued flit 345271
Requeued flit 297897
Requeued flit 316898
Requeued flit 297375
Requeued flit 287669
Requeued flit 318268
Requeued flit 321504
Requeued flit 278627
Requeued flit 287573
Requeued flit 304014
Requeued flit 305203
Requeued flit 321424
Requeued flit 345425
Requeued flit 344927
Requeued flit 343030
Requeued flit 306762
Requeued flit 326476
Requeued flit 318958
Requeued flit 315910
Requeued flit 295186
Requeued flit 291117
Requeued flit 291252
Requeued flit 345326
Requeued flit 308349
Requeued flit 345440
Requeued flit 337920
Requeued flit 306388
Requeued flit 327438
Requeued flit 335137
Requeued flit 345443
Requeued flit 327032
Requeued flit 321806
Requeued flit 307276
Requeued flit 289846
Requeued flit 311826
Requeued flit 345436
Requeued flit 317608
Requeued flit 342347
Requeued flit 287191
Requeued flit 327850
Requeued flit 327718
Requeued flit 287153
Requeued flit 307948
Requeued flit 311839
Requeued flit 300733
Requeued flit 303100
Requeued flit 304596
Requeued flit 345468
Requeued flit 308309
Requeued flit 299861
Requeued flit 284580
Requeued flit 344758
Requeued flit 327541
Requeued flit 295178
Requeued flit 327102
Requeued flit 303815
Requeued flit 308027
Requeued flit 275598
Requeued flit 345456
Requeued flit 320508
Requeued flit 307233
Requeued flit 289916
Requeued flit 315768
Requeued flit 307390
Requeued flit 282297
Requeued flit 345446
Requeued flit 338859
Requeued flit 294325
Requeued flit 342041
Requeued flit 294753
Requeued flit 329115
Requeued flit 283640
Requeued flit 291283
Requeued flit 316181
Requeued flit 315339
Requeued flit 345670
Requeued flit 307118
Requeued flit 303710
Requeued flit 341193
Requeued flit 290055
Requeued flit 345802
Requeued flit 308441
Requeued flit 345288
Requeued flit 345358
Requeued flit 327518
Requeued flit 319468
Requeued flit 308286
Requeued flit 281267
Requeued flit 318636
Requeued flit 302917
Requeued flit 338104
Requeued flit 308976
Requeued flit 296501
Requeued flit 342521
Requeued flit 344672
Requeued flit 315627
Requeued flit 306091
Requeued flit 325227
Requeued flit 276106
Requeued flit 327358
Requeued flit 343628
Requeued flit 327464
Requeued flit 283077
Requeued flit 345099
Requeued flit 345930
Requeued flit 339078
Requeued flit 320956
Requeued flit 312211
Requeued flit 320229
Requeued flit 300423
Requeued flit 338248
Requeued flit 345424
Requeued flit 282032
Requeued flit 327855
Requeued flit 292122
Requeued flit 345744
Requeued flit 301543
Requeued flit 315442
Requeued flit 308063
Requeued flit 296969
Requeued flit 315340
Requeued flit 344616
Requeued flit 345377
Requeued flit 334370
Requeued flit 296343
Requeued flit 345900
Requeued flit 281481
Requeued flit 309190
Requeued flit 305102
Requeued flit 270991
Requeued flit 288926
Requeued flit 314195
Requeued flit 329076
Requeued flit 327876
Requeued flit 307548
Requeued flit 320776
Requeued flit 309757
Requeued flit 315379
Requeued flit 339792
Requeued flit 318422
Requeued flit 294859
Requeued flit 319669
Requeued flit 327752
Requeued flit 326244
Requeued flit 328119
Requeued flit 297872
Requeued flit 345173
Requeued flit 304596
Requeued flit 345392
Requeued flit 336065
Requeued flit 327188
Requeued flit 341612
Requeued flit 315034
Requeued flit 271937
Requeued flit 345807
Requeued flit 346285
Requeued flit 328291
Requeued flit 346374
Requeued flit 328409
Requeued flit 288064
Requeued flit 322747
Requeued flit 327946
Requeued flit 311863
Requeued flit 345628
Requeued flit 341255
Requeued flit 345967
Requeued flit 308753
Requeued flit 282032
Requeued flit 327876
Requeued flit 310759
Requeued flit 296192
Requeued flit 281995
Requeued flit 283166
Requeued flit 346466
Requeued flit 322484
Requeued flit 300222
Requeued flit 339582
Requeued flit 344128
Requeued flit 323357
Requeued flit 323887
Requeued flit 288432
Requeued flit 299819
Requeued flit 346322
Requeued flit 334658
Requeued flit 290046
Requeued flit 318371
Requeued flit 342874
Requeued flit 304613
Requeued flit 346383
Requeued flit 331313
Requeued flit 265036
Requeued flit 339968
Requeued flit 283907
Requeued flit 308853
Requeued flit 346340
Requeued flit 346346
Requeued flit 328683
Requeued flit 300741
Requeued flit 338814
Requeued flit 293047
Requeued flit 327261
Requeued flit 282805
Requeued flit 308099
Requeued flit 310537
Requeued flit 288559
Requeued flit 308089
Requeued flit 265384
Requeued flit 305360
Requeued flit 290305
Requeued flit 315622
Requeued flit 337088
Requeued flit 328845
Requeued flit 328609
Requeued flit 287679
Requeued flit 339582
Requeued flit 330718
Requeued flit 339897
Requeued flit 341638
Requeued flit 297940
Requeued flit 328488
Requeued flit 329258
Requeued flit 313223
Requeued flit 346660
Requeued flit 346179
Requeued flit 327102
Requeued flit 346817
Requeued flit 346825
Requeued flit 308744
Requeued flit 319709
Requeued flit 271551
Requeued flit 346797
Requeued flit 328924
Requeued flit 309143
Requeued flit 318053
Requeued flit 295821
Requeued flit 328113
Requeued flit 295454
Requeued flit 340486
Requeued flit 313234
Requeued flit 274454
Requeued flit 343351
Requeued flit 313232
Requeued flit 308339
Requeued flit 295040
Requeued flit 300099
Requeued flit 309129
Requeued flit 304885
Requeued flit 283438
Requeued flit 317700
Requeued flit 281814
Requeued flit 296659
Requeued flit 315027
Requeued flit 286885
Requeued flit 314396
Requeued flit 346947
Requeued flit 309334
Requeued flit 328762
Requeued flit 346929
Requeued flit 346325
Requeued flit 307436
Requeued flit 329097
Requeued flit 309599
Requeued flit 346719
Requeued flit 298829
Requeued flit 290003
Requeued flit 320463
Requeued flit 346878
Requeued flit 307256
Requeued flit 306296
Requeued flit 327962
Requeued flit 293788
Requeued flit 284107
Requeued flit 339115
Requeued flit 279790
Requeued flit 346914
Requeued flit 346842
Requeued flit 301855
Requeued flit 345971
Requeued flit 286240
Requeued flit 288813
Requeued flit 340682
Requeued flit 345674
Requeued flit 309156
Requeued flit 293364
Requeued flit 286307
Requeued flit 347023
Requeued flit 327102
Requeued flit 341450
Requeued flit 346011
Requeued flit 289363
Requeued flit 338790
Requeued flit 297607
Requeued flit 315352
Requeued flit 288324
Requeued flit 340503
Requeued flit 338769
Requeued flit 283735
Requeued flit 320474
Requeued flit 347145
Requeued flit 328623
Requeued flit 302004
Requeued flit 323961
Requeued flit 346547
Requeued flit 329344
Requeued flit 327180
Requeued flit 304732
Requeued flit 327185
Requeued flit 308462
Requeued flit 328913
Requeued flit 293328
Requeued flit 295415
Requeued flit 266623
Requeued flit 288790
Requeued flit 280843
Requeued flit 289280
Requeued flit 342368
Requeued flit 301425
Requeued flit 347268
Requeued flit 346906
Requeued flit 344527
Requeued flit 347068
Requeued flit 308389
Requeued flit 329030
Requeued flit 344797
Requeued flit 347352
Requeued flit 346667
Requeued flit 340670
Requeued flit 347153
Requeued flit 318278
Requeued flit 327822
Requeued flit 323713
Requeued flit 328279
Requeued flit 291953
Requeued flit 315598
Requeued flit 316531
Requeued flit 329048
Requeued flit 345008
Requeued flit 309158
Requeued flit 343912
Requeued flit 291863
Requeued flit 347391
Requeued flit 323988
Requeued flit 308712
Requeued flit 346959
Requeued flit 295884
Requeued flit 299734
Requeued flit 328897
Requeued flit 325765
Requeued flit 347107
Requeued flit 310567
Requeued flit 343378
Requeued flit 311238
Requeued flit 327853
Requeued flit 310369
Requeued flit 296433
Requeued flit 270933
Requeued flit 347530
Requeued flit 286393
Requeued flit 309359
Requeued flit 347520
Requeued flit 296341
Requeued flit 315247
Requeued flit 346844
Requeued flit 293882
Requeued flit 316886
Requeued flit 329194
Requeued flit 294992
Requeued flit 305595
Requeued flit 309111
Requeued flit 329451
Requeued flit 341783
Requeued flit 327187
Requeued flit 324714
Requeued flit 287473
Requeued flit 323157
Requeued flit 329168
Requeued flit 290898
Requeued flit 279326
Requeued flit 292529
Requeued flit 309548
Requeued flit 328415
Requeued flit 278883
Requeued flit 347568
Requeued flit 347580
Requeued flit 329312
Requeued flit 301963
Requeued flit 339291
Requeued flit 328537
Requeued flit 301999
Requeued flit 293328
Requeued flit 347760
Requeued flit 306193
Requeued flit 310831
Requeued flit 347695
Requeued flit 309065
Requeued flit 264590
Requeued flit 296252
Requeued flit 309525
Requeued flit 281783
Requeued flit 347098
Requeued flit 314309
Requeued flit 346950
Requeued flit 293882
Requeued flit 306701
Requeued flit 347765
Requeued flit 322955
Requeued flit 310706
Requeued flit 316147
Requeued flit 330570
Requeued flit 305662
Requeued flit 283348
Requeued flit 312060
Requeued flit 309575
Requeued flit 275281
Requeued flit 317718
Requeued flit 303345
Requeued flit 309422
Requeued flit 309640
Requeued flit 335890
Requeued flit 285926
Requeued flit 347900
Requeued flit 329487
Requeued flit 347652
Requeued flit 348029
Requeued flit 330120
Requeued flit 287987
Requeued flit 347938
Requeued flit 347975
Requeued flit 329607
Requeued flit 344018
Requeued flit 341208
Requeued flit 340215
Requeued flit 310572
Requeued flit 347832
Requeued flit 346710
Requeued flit 294848
Requeued flit 302078
Requeued flit 347972
Requeued flit 348036
Requeued flit 348072
Requeued flit 287625
Requeued flit 329394
Requeued flit 332597
Requeued flit 335250
Requeued flit 321218
Requeued flit 330039
Requeued flit 296771
Requeued flit 347974
Requeued flit 338117
Requeued flit 286038
Requeued flit 284318
Requeued flit 297221
Requeued flit 298375
Requeued flit 348183
Requeued flit 303314
Requeued flit 303173
Requeued flit 328275
Requeued flit 276747
Requeued flit 348115
Requeued flit 321886
Requeued flit 327767
Requeued flit 313346
Requeued flit 321457
Requeued flit 310032
Requeued flit 312340
Requeued flit 314073
Requeued flit 348126
Requeued flit 290890
Requeued flit 341391
Requeued flit 324836
Requeued flit 305424
Requeued flit 268277
Requeued flit 348174
Requeued flit 344828
Requeued flit 309126
Requeued flit 348330
Requeued flit 325098
Requeued flit 341464
Requeued flit 348220
Requeued flit 312180
Requeued flit 293834
Requeued flit 308303
Requeued flit 317526
Requeued flit 269635
Requeued flit 286227
Requeued flit 348408
Requeued flit 272423
Requeued flit 311462
Requeued flit 348151
Requeued flit 324775
Requeued flit 320961
Requeued flit 327354
Requeued flit 332841
Requeued flit 345007
Requeued flit 304473
Requeued flit 285108
Requeued flit 282798
Requeued flit 346698
Requeued flit 348234
Requeued flit 296415
Requeued flit 300462
Requeued flit 283365
Requeued flit 347222
Requeued flit 311218
Requeued flit 297041
Requeued flit 309102
Requeued flit 348543
Requeued flit 311256
Requeued flit 343379
Requeued flit 295186
Requeued flit 330183
Requeued flit 295318
Requeued flit 330031
Requeued flit 329607
Requeued flit 313800
Requeued flit 289775
Requeued flit 329534
Requeued flit 329987
Requeued flit 277156
Requeued flit 330629
Requeued flit 292867
Requeued flit 286894
Requeued flit 309365
Requeued flit 312756
Requeued flit 269030
Requeued flit 297515
Requeued flit 286789
Requeued flit 348402
Requeued flit 329953
Requeued flit 348577
Requeued flit 293900
Requeued flit 330576
Requeued flit 341850
Requeued flit 348250
Requeued flit 348658
Requeued flit 316884
Requeued flit 319843
Requeued flit 294457
Requeued flit 348536
Requeued flit 348496
Requeued flit 348670
Requeued flit 330119
Requeued flit 329837
Requeued flit 348687
Requeued flit 284176
Requeued flit 316956
Requeued flit 308775
Requeued flit 348646
Requeued flit 330352
Requeued flit 348797
Requeued flit 330428
Requeued flit 344556
Requeued flit 312264
Requeued flit 347774
Requeued flit 348813
Requeued flit 285697
Requeued flit 344228
Requeued flit 325031
Requeued flit 311274
Requeued flit 302743
Requeued flit 314964
Requeued flit 342497
Requeued flit 348671
Requeued flit 348422
Requeued flit 348882
Requeued flit 325296
Requeued flit 348804
Requeued flit 330553
Requeued flit 286751
Requeued flit 323315
Requeued flit 271529
Requeued flit 325709
Requeued flit 348831
Requeued flit 348456
Requeued flit 319630
Requeued flit 348849
Requeued flit 330166
Requeued flit 305002
Requeued flit 318252
Requeued flit 293834
Requeued flit 291613
Requeued flit 349003
Requeued flit 300808
Requeued flit 320071
Requeued flit 310784
Requeued flit 302769
Requeued flit 345514
Requeued flit 317598
Requeued flit 348733
Requeued flit 305051
Requeued flit 344527
Requeued flit 310667
Requeued flit 301423
Requeued flit 348994
Requeued flit 290028
Requeued flit 328898
Requeued flit 330609
Requeued flit 348940
Requeued flit 311946
Requeued flit 312217
Requeued flit 305514
Requeued flit 306444
Requeued flit 313025
Requeued flit 310154
Requeued flit 340049
Requeued flit 296620
Requeued flit 310798
Requeued flit 311905
Requeued flit 305292
Requeued flit 314892
Requeued flit 317403
Requeued flit 330891
Requeued flit 349194
Requeued flit 292735
Requeued flit 284627
Requeued flit 349054
Requeued flit 297096
Requeued flit 285537
Requeued flit 348977
Requeued flit 287664
Requeued flit 349092
Requeued flit 313377
Requeued flit 331073
Requeued flit 291883
Requeued flit 292888
Requeued flit 296740
Requeued flit 310829
Requeued flit 310060
Requeued flit 342906
Requeued flit 335499
Requeued flit 312022
Requeued flit 347068
Requeued flit 318641
Requeued flit 330649
Requeued flit 323381
Requeued flit 279378
Requeued flit 298390
Requeued flit 310269
Requeued flit 327310
Requeued flit 343124
Requeued flit 288703
Requeued flit 311589
Requeued flit 346049
Requeued flit 285349
Requeued flit 317685
Requeued flit 349396
Requeued flit 324466
Requeued flit 348349
Requeued flit 339710
Requeued flit 313263
Requeued flit 311747
Requeued flit 349188
Requeued flit 293614
Requeued flit 278799
Requeued flit 348273
Requeued flit 309615
Requeued flit 299782
Requeued flit 349498
Requeued flit 271883
Requeued flit 331010
Requeued flit 308759
Requeued flit 349337
Requeued flit 343228
Requeued flit 349483
Requeued flit 291754
Requeued flit 296896
Requeued flit 280524
Requeued flit 328581
Requeued flit 293733
Requeued flit 330972
Requeued flit 283137
Requeued flit 342853
Requeued flit 349421
Requeued flit 290387
Requeued flit 310678
Requeued flit 331295
Requeued flit 303934
Requeued flit 331659
Requeued flit 285262
Requeued flit 348575
Requeued flit 330839
Requeued flit 312363
Requeued flit 279501
Requeued flit 311300
Requeued flit 343354
Requeued flit 287354
Requeued flit 326838
Requeued flit 292888
Requeued flit 349593
Requeued flit 293961
Requeued flit 295998
Requeued flit 285184
Requeued flit 332523
Requeued flit 343582
Requeued flit 349222
Requeued flit 331615
Requeued flit 289561
Requeued flit 288647
Requeued flit 308635
Requeued flit 321881
Requeued flit 349728
Requeued flit 307218
Requeued flit 311939
Requeued flit 311751
Requeued flit 298635
Requeued flit 322034
Requeued flit 291610
Requeued flit 349713
Requeued flit 295399
Requeued flit 343370
Requeued flit 345059
Requeued flit 294640
Requeued flit 284855
Requeued flit 347933
Requeued flit 349376
Requeued flit 349808
Requeued flit 349729
Requeued flit 331134
Requeued flit 312113
Requeued flit 286978
Requeued flit 322834
Requeued flit 317978
Requeued flit 330978
Requeued flit 331545
Requeued flit 290145
Requeued flit 294935
Requeued flit 298704
Requeued flit 331763
Requeued flit 270701
Requeued flit 344950
Requeued flit 331336
Requeued flit 310145
Requeued flit 349912
Requeued flit 299641
Requeued flit 331135
Requeued flit 290375
Requeued flit 349458
Requeued flit 331287
Requeued flit 311690
Requeued flit 343480
Requeued flit 349929
Requeued flit 349765
Requeued flit 297235
Requeued flit 303991
Requeued flit 349657
Requeued flit 350009
Requeued flit 288632
Requeued flit 349592
Requeued flit 302821
Requeued flit 349613
Requeued flit 330891
Requeued flit 288240
Requeued flit 320379
Requeued flit 298634
Requeued flit 319724
Requeued flit 332049
Requeued flit 318155
Requeued flit 349782
Requeued flit 289273
Requeued flit 308603
Requeued flit 332186
Requeued flit 343192
Requeued flit 332272
Requeued flit 350047
Requeued flit 350087
Requeued flit 302191
Requeued flit 275492
Requeued flit 307249
Requeued flit 342857
Requeued flit 349989
Requeued flit 291894
Requeued flit 328519
Requeued flit 342009
Requeued flit 313608
Requeued flit 312302
Requeued flit 344605
Requeued flit 343846
Requeued flit 307585
Requeued flit 263216
Requeued flit 333859
Requeued flit 288771
Requeued flit 349711
Requeued flit 350198
Requeued flit 345211
Requeued flit 302002
Requeued flit 333927
Requeued flit 341220
Requeued flit 311611
Requeued flit 331674
Requeued flit 323806
Requeued flit 298283
Requeued flit 309923
Requeued flit 277977
Requeued flit 315873
Requeued flit 331584
Requeued flit 311328
Requeued flit 349525
Requeued flit 306545
Requeued flit 323545
Requeued flit 294073
Requeued flit 349792
Requeued flit 310552
Requeued flit 304114
Requeued flit 297054
Requeued flit 348884
Requeued flit 310460
Requeued flit 303702
Requeued flit 331483
Requeued flit 312307
Requeued flit 343315
Requeued flit 310630
Requeued flit 350223
Requeued flit 349989
Requeued flit 298115
Requeued flit 318334
Requeued flit 349997
Requeued flit 350424
Requeued flit 350014
Requeued flit 301460
Requeued flit 311528
Requeued flit 288575
Requeued flit 322678
Requeued flit 350079
Requeued flit 349920
Requeued flit 276170
Requeued flit 293161
Requeued flit 344639
Requeued flit 312105
Requeued flit 312013
Requeued flit 292378
Requeued flit 350417
Requeued flit 294184
Requeued flit 297510
Requeued flit 330005
Requeued flit 325907
Requeued flit 303853
Requeued flit 332035
Requeued flit 312314
Requeued flit 327084
Requeued flit 293309
Requeued flit 332060
Requeued flit 312688
Requeued flit 331703
Requeued flit 276688
Requeued flit 279293
Requeued flit 332816
Requeued flit 297139
Requeued flit 288557
Requeued flit 350628
Requeued flit 350554
Requeued flit 344549
Requeued flit 292140
Requeued flit 318208
Requeued flit 332144
Requeued flit 321343
Requeued flit 332699
Requeued flit 297402
Requeued flit 313258
Requeued flit 350695
Requeued flit 301222
Requeued flit 350293
Requeued flit 298917
Requeued flit 332454
Requeued flit 338481
Requeued flit 350339
Requeued flit 350777
Requeued flit 290394
Requeued flit 319611
Requeued flit 291148
Requeued flit 350383
Requeued flit 349804
Requeued flit 345646
Requeued flit 285425
Requeued flit 329726
Requeued flit 310353
Requeued flit 332935
Requeued flit 312821
Requeued flit 312167
Requeued flit 294494
Requeued flit 329383
Requeued flit 292393
Requeued flit 285328
Requeued flit 278561
Requeued flit 311184
Requeued flit 343330
Requeued flit 332746
Requeued flit 312828
Requeued flit 323183
Requeued flit 282131
Requeued flit 297211
Class 0:
Packet latency average = 479.731
	minimum = 5
	maximum = 2932
Network latency average = 479.731
	minimum = 5
	maximum = 2932
Slowest packet = 245791
Flit latency average = 479.731
	minimum = 5
	maximum = 2932
Slowest flit = 245791
Fragmentation average = 0
	minimum = 0
	maximum = 0
Injected packet rate average = 0.548848
	minimum = 0.5406 (at node 2)
	maximum = 0.5595 (at node 5)
Accepted packet rate average = 0.493975
	minimum = 0.4787 (at node 21)
	maximum = 0.5118 (at node 14)
Injected flit rate average = 0.548848
	minimum = 0.5406 (at node 2)
	maximum = 0.5595 (at node 5)
Accepted flit rate average= 0.493975
	minimum = 0.4787 (at node 21)
	maximum = 0.5118 (at node 14)
Injected packet length average = 1
Accepted packet length average = 1
Total in-flight flits = 35119 (0 measured)
latency change    = 1
throughput change = 1
Average latency for class 0 exceeded 500 cycles. Aborting simulation.
Too many sample periods needed to converge
Simulation unstable, ending ...
Total run time 94.7597
