BEGIN Configuration File: examples/ecc_mesh88_config_0_0.400_link_3
// $Id$

// Copyright (c) 2007-2015, Trustees of The Leland Stanford Junior University
// All rights reserved.
//
// Redistribution and use in source and binary forms, with or without
// modification, are permitted provided that the following conditions are met:
//
// Redistributions of source code must retain the above copyright notice, this
// list of conditions and the following disclaimer.
// Redistributions in binary form must reproduce the above copyright notice,
// this list of conditions and the following disclaimer in the documentation
// and/or other materials provided with the distribution.
//
// THIS SOFTWARE IS PROVIDED BY THE COPYRIGHT HOLDERS AND CONTRIBUTORS "AS IS"
// AND ANY EXPRESS OR IMPLIED WARRANTIES, INCLUDING, BUT NOT LIMITED TO, THE
// IMPLIED WARRANTIES OF MERCHANTABILITY AND FITNESS FOR A PARTICULAR PURPOSE
// ARE DISCLAIMED. IN NO EVENT SHALL THE COPYRIGHT OWNER OR CONTRIBUTORS BE
// LIABLE FOR ANY DIRECT, INDIRECT, INCIDENTAL, SPECIAL, EXEMPLARY, OR
// CONSEQUENTIAL DAMAGES (INCLUDING, BUT NOT LIMITED TO, PROCUREMENT OF
// SUBSTITUTE GOODS OR SERVICES; LOSS OF USE, DATA, OR PROFITS; OR BUSINESS
// INTERRUPTION) HOWEVER CAUSED AND ON ANY THEORY OF LIABILITY, WHETHER IN
// CONTRACT, STRICT LIABILITY, OR TORT (INCLUDING NEGLIGENCE OR OTHERWISE)
// ARISING IN ANY WAY OUT OF THE USE OF THIS SOFTWARE, EVEN IF ADVISED OF THE
// POSSIBILITY OF SUCH DAMAGE.

// Dragonfly
//




vc_buf_size = 256;


wait_for_tail_credit = 0;

//
// Router architecture
//
vc_allocator = separable_input_first; 
sw_allocator = separable_input_first;
alloc_iters  = 1;

credit_delay   = 2;
routing_delay  = 0;
vc_alloc_delay = 1;
sw_alloc_delay = 1;
st_final_delay = 1;

input_speedup     = 1;
output_speedup    = 1;
internal_speedup  = 2.0;


warmup_periods = 3;
sim_count          = 1;

sample_period  = 10000;  


routing_function = dor;
num_vcs     = 2;

priority = none;
traffic       = uniform; 

injection_rate = 0.4;
packet_size = 1;
injection_rate_uses_flits=1;

topology = mesh;

k  = 8;
n  = 2;

fer = 3;
ecc = link;
correctable = 0;

watch_out=-;
watch_file = watch.txt;

ecc = link;

stats_out = examples/ecc_mesh88_config_0_0.400_link_3.m;

END Configuration File: examples/ecc_mesh88_config_0_0.400_link_3
Requeued flit 160
Requeued flit 318
Requeued flit 726
Requeued flit 783
Requeued flit 333
Requeued flit 759
Requeued flit 1010
Requeued flit 767
Requeued flit 741
Requeued flit 798
Requeued flit 1403
Requeued flit 894
Requeued flit 1349
Requeued flit 1701
Requeued flit 1439
Requeued flit 1644
Requeued flit 2291
Requeued flit 1725
Requeued flit 2671
Requeued flit 2968
Requeued flit 2725
Requeued flit 3174
Requeued flit 3087
Requeued flit 3279
Requeued flit 3764
Requeued flit 3545
Requeued flit 3266
Requeued flit 4074
Requeued flit 3697
Requeued flit 4282
Requeued flit 4109
Requeued flit 5119
Requeued flit 5146
Requeued flit 5025
Requeued flit 5172
Requeued flit 5327
Requeued flit 5577
Requeued flit 5464
Requeued flit 5749
Requeued flit 5953
Requeued flit 6198
Requeued flit 6861
Requeued flit 7398
Requeued flit 7494
Requeued flit 7547
Requeued flit 7825
Requeued flit 7611
Requeued flit 7896
Requeued flit 8126
Requeued flit 8849
Requeued flit 8947
Requeued flit 9121
Requeued flit 8904
Requeued flit 9127
Requeued flit 9617
Requeued flit 9720
Requeued flit 10051
Requeued flit 10112
Requeued flit 10434
Requeued flit 10410
Requeued flit 10273
Requeued flit 10826
Requeued flit 11032
Requeued flit 11113
Requeued flit 11226
Requeued flit 11425
Requeued flit 11677
Requeued flit 12019
Requeued flit 12004
Requeued flit 12165
Requeued flit 12270
Requeued flit 12126
Requeued flit 12512
Requeued flit 12461
Requeued flit 12715
Requeued flit 12369
Requeued flit 13188
Requeued flit 13542
Requeued flit 13334
Requeued flit 13838
Requeued flit 13674
Requeued flit 13334
Requeued flit 14000
Requeued flit 14256
Requeued flit 14526
Requeued flit 14531
Requeued flit 14247
Requeued flit 14792
Requeued flit 14634
Requeued flit 14443
Requeued flit 14316
Requeued flit 15206
Requeued flit 15268
Requeued flit 14722
Requeued flit 15231
Requeued flit 15322
Requeued flit 15168
Requeued flit 15174
Requeued flit 15874
Requeued flit 16040
Requeued flit 16369
Requeued flit 16106
Requeued flit 15957
Requeued flit 16632
Requeued flit 16266
Requeued flit 17202
Requeued flit 17041
Requeued flit 17080
Requeued flit 17177
Requeued flit 16892
Requeued flit 17504
Requeued flit 17652
Requeued flit 17291
Requeued flit 17807
Requeued flit 18459
Requeued flit 18483
Requeued flit 18957
Requeued flit 19194
Requeued flit 19162
Requeued flit 19786
Requeued flit 19439
Requeued flit 19333
Requeued flit 20101
Requeued flit 20251
Requeued flit 20428
Requeued flit 19953
Requeued flit 20474
Requeued flit 21167
Requeued flit 21165
Requeued flit 21766
Requeued flit 21232
Requeued flit 21725
Requeued flit 21692
Requeued flit 21874
Requeued flit 22281
Requeued flit 22092
Requeued flit 22574
Requeued flit 21564
Requeued flit 22418
Requeued flit 22322
Requeued flit 22560
Requeued flit 22697
Requeued flit 23785
Requeued flit 24248
Requeued flit 24000
Requeued flit 24459
Requeued flit 24614
Requeued flit 24894
Requeued flit 24961
Requeued flit 24354
Requeued flit 25121
Requeued flit 25204
Requeued flit 25261
Requeued flit 25247
Requeued flit 25239
Requeued flit 25548
Requeued flit 25990
Requeued flit 26086
Requeued flit 26151
Requeued flit 26725
Requeued flit 26779
Requeued flit 26661
Requeued flit 26914
Requeued flit 27587
Requeued flit 27385
Requeued flit 27999
Requeued flit 27695
Requeued flit 27935
Requeued flit 28322
Requeued flit 28574
Requeued flit 29862
Requeued flit 30032
Requeued flit 29767
Requeued flit 30136
Requeued flit 30091
Requeued flit 30212
Requeued flit 30420
Requeued flit 30392
Requeued flit 30574
Requeued flit 30856
Requeued flit 30812
Requeued flit 31144
Requeued flit 31282
Requeued flit 31270
Requeued flit 31027
Requeued flit 31298
Requeued flit 31695
Requeued flit 31801
Requeued flit 32148
Requeued flit 32478
Requeued flit 33031
Requeued flit 33105
Requeued flit 32326
Requeued flit 33332
Requeued flit 32784
Requeued flit 33186
Requeued flit 32995
Requeued flit 34128
Requeued flit 34479
Requeued flit 34607
Requeued flit 34962
Requeued flit 35106
Requeued flit 35497
Requeued flit 35696
Requeued flit 35709
Requeued flit 35803
Requeued flit 35726
Requeued flit 35461
Requeued flit 36673
Requeued flit 36727
Requeued flit 36593
Requeued flit 37584
Requeued flit 37367
Requeued flit 37792
Requeued flit 37827
Requeued flit 37586
Requeued flit 37926
Requeued flit 38201
Requeued flit 38214
Requeued flit 38912
Requeued flit 39132
Requeued flit 38313
Requeued flit 38871
Requeued flit 38893
Requeued flit 39300
Requeued flit 39805
Requeued flit 39874
Requeued flit 39978
Requeued flit 39795
Requeued flit 39800
Requeued flit 40191
Requeued flit 40354
Requeued flit 40440
Requeued flit 40214
Requeued flit 40654
Requeued flit 40719
Requeued flit 40754
Requeued flit 41090
Requeued flit 40840
Requeued flit 40946
Requeued flit 41193
Requeued flit 41004
Requeued flit 42036
Requeued flit 41851
Requeued flit 42423
Requeued flit 42225
Requeued flit 42583
Requeued flit 42968
Requeued flit 42923
Requeued flit 42804
Requeued flit 43228
Requeued flit 43212
Requeued flit 43725
Requeued flit 43902
Requeued flit 43992
Requeued flit 44305
Requeued flit 43957
Requeued flit 43869
Requeued flit 44369
Requeued flit 44714
Requeued flit 44678
Requeued flit 45020
Requeued flit 44934
Requeued flit 44670
Requeued flit 44200
Requeued flit 44963
Requeued flit 45750
Requeued flit 45913
Requeued flit 45486
Requeued flit 45756
Requeued flit 46181
Requeued flit 46314
Requeued flit 46389
Requeued flit 46655
Requeued flit 46630
Requeued flit 46784
Requeued flit 46885
Requeued flit 46994
Requeued flit 47336
Requeued flit 47045
Requeued flit 47213
Requeued flit 47462
Requeued flit 47460
Requeued flit 47535
Requeued flit 48089
Requeued flit 47881
Requeued flit 48615
Requeued flit 48429
Requeued flit 48451
Requeued flit 48829
Requeued flit 48991
Requeued flit 49359
Requeued flit 49749
Requeued flit 49755
Requeued flit 49882
Requeued flit 49979
Requeued flit 50364
Requeued flit 50495
Requeued flit 50263
Requeued flit 50513
Requeued flit 51258
Requeued flit 51158
Requeued flit 51477
Requeued flit 51248
Requeued flit 51710
Requeued flit 51027
Requeued flit 51870
Requeued flit 51983
Requeued flit 51615
Requeued flit 51731
Requeued flit 51449
Requeued flit 52149
Requeued flit 51859
Requeued flit 52447
Requeued flit 52271
Requeued flit 52979
Requeued flit 52837
Requeued flit 52838
Requeued flit 52850
Requeued flit 53438
Requeued flit 53029
Requeued flit 53512
Requeued flit 53333
Requeued flit 53175
Requeued flit 53965
Requeued flit 54375
Requeued flit 54477
Requeued flit 54562
Requeued flit 54533
Requeued flit 54764
Requeued flit 54826
Requeued flit 54907
Requeued flit 55014
Requeued flit 55440
Requeued flit 55191
Requeued flit 55388
Requeued flit 55366
Requeued flit 56019
Requeued flit 56190
Requeued flit 56476
Requeued flit 56578
Requeued flit 56894
Requeued flit 56973
Requeued flit 56902
Requeued flit 57077
Requeued flit 57298
Requeued flit 57386
Requeued flit 57539
Requeued flit 57368
Requeued flit 57870
Requeued flit 57803
Requeued flit 58080
Requeued flit 58611
Requeued flit 58684
Requeued flit 58657
Requeued flit 58701
Requeued flit 58870
Requeued flit 58940
Requeued flit 59212
Requeued flit 59458
Requeued flit 59687
Requeued flit 59589
Requeued flit 60113
Requeued flit 60249
Requeued flit 60575
Requeued flit 60973
Requeued flit 61150
Requeued flit 61027
Requeued flit 61426
Requeued flit 61644
Requeued flit 62141
Requeued flit 62117
Requeued flit 62548
Requeued flit 62734
Requeued flit 62781
Requeued flit 62971
Requeued flit 62928
Requeued flit 62581
Requeued flit 63202
Requeued flit 63375
Requeued flit 63269
Requeued flit 63060
Requeued flit 64090
Requeued flit 64386
Requeued flit 64215
Requeued flit 63962
Requeued flit 64584
Requeued flit 64366
Requeued flit 64795
Requeued flit 64939
Requeued flit 65302
Requeued flit 65338
Requeued flit 65190
Requeued flit 65131
Requeued flit 65672
Requeued flit 65944
Requeued flit 66098
Requeued flit 66102
Requeued flit 66219
Requeued flit 66293
Requeued flit 66655
Requeued flit 66038
Requeued flit 66878
Requeued flit 66952
Requeued flit 67147
Requeued flit 67280
Requeued flit 66828
Requeued flit 66935
Requeued flit 67772
Requeued flit 67933
Requeued flit 67820
Requeued flit 67314
Requeued flit 68306
Requeued flit 68054
Requeued flit 68711
Requeued flit 67993
Requeued flit 68607
Requeued flit 68838
Requeued flit 68974
Requeued flit 69297
Requeued flit 68890
Requeued flit 69766
Requeued flit 69584
Requeued flit 69525
Requeued flit 69894
Requeued flit 70069
Requeued flit 70221
Requeued flit 70187
Requeued flit 70035
Requeued flit 69716
Requeued flit 70916
Requeued flit 70262
Requeued flit 71179
Requeued flit 71203
Requeued flit 71134
Requeued flit 71260
Requeued flit 71478
Requeued flit 72000
Requeued flit 72317
Requeued flit 72058
Requeued flit 72121
Requeued flit 72761
Requeued flit 72758
Requeued flit 72670
Requeued flit 73193
Requeued flit 73081
Requeued flit 73726
Requeued flit 74008
Requeued flit 73987
Requeued flit 74022
Requeued flit 74362
Requeued flit 74295
Requeued flit 74594
Requeued flit 74679
Requeued flit 74280
Requeued flit 74446
Requeued flit 75324
Requeued flit 75385
Requeued flit 74946
Requeued flit 75400
Requeued flit 75513
Requeued flit 75531
Requeued flit 75320
Requeued flit 75732
Requeued flit 75784
Requeued flit 75741
Requeued flit 75961
Requeued flit 76041
Requeued flit 76145
Requeued flit 76258
Requeued flit 76580
Requeued flit 76688
Requeued flit 76896
Requeued flit 76864
Requeued flit 76670
Requeued flit 77310
Requeued flit 77188
Requeued flit 77367
Requeued flit 77588
Requeued flit 77602
Requeued flit 77172
Requeued flit 77773
Requeued flit 77922
Requeued flit 77969
Requeued flit 78108
Requeued flit 78467
Requeued flit 78186
Requeued flit 79216
Requeued flit 79586
Requeued flit 79793
Requeued flit 79508
Requeued flit 79673
Requeued flit 80126
Requeued flit 80714
Requeued flit 80580
Requeued flit 80424
Requeued flit 81029
Requeued flit 81039
Requeued flit 80643
Requeued flit 80884
Requeued flit 81348
Requeued flit 81076
Requeued flit 81672
Requeued flit 81518
Requeued flit 81858
Requeued flit 81573
Requeued flit 81943
Requeued flit 82001
Requeued flit 82415
Requeued flit 82280
Requeued flit 82801
Requeued flit 82741
Requeued flit 82627
Requeued flit 82826
Requeued flit 83101
Requeued flit 83039
Requeued flit 83678
Requeued flit 84317
Requeued flit 84104
Requeued flit 83945
Requeued flit 84453
Requeued flit 83725
Requeued flit 84464
Requeued flit 84578
Requeued flit 84497
Requeued flit 84838
Requeued flit 85079
Requeued flit 85340
Requeued flit 84514
Requeued flit 85796
Requeued flit 85986
Requeued flit 85999
Requeued flit 86276
Requeued flit 86421
Requeued flit 86426
Requeued flit 86246
Requeued flit 86402
Requeued flit 87166
Requeued flit 86470
Requeued flit 87308
Requeued flit 87299
Requeued flit 87195
Requeued flit 87299
Requeued flit 87712
Requeued flit 87815
Requeued flit 87902
Requeued flit 88332
Requeued flit 88422
Requeued flit 88111
Requeued flit 88461
Requeued flit 88629
Requeued flit 88503
Requeued flit 88493
Requeued flit 88018
Requeued flit 88811
Requeued flit 89080
Requeued flit 89208
Requeued flit 89142
Requeued flit 89181
Requeued flit 89689
Requeued flit 89252
Requeued flit 89965
Requeued flit 90417
Requeued flit 90117
Requeued flit 90838
Requeued flit 91612
Requeued flit 91662
Requeued flit 91013
Requeued flit 91586
Requeued flit 91811
Requeued flit 91897
Requeued flit 92578
Requeued flit 92055
Requeued flit 92477
Requeued flit 92441
Requeued flit 93120
Requeued flit 93278
Requeued flit 93268
Requeued flit 92665
Requeued flit 92867
Requeued flit 93658
Requeued flit 93224
Requeued flit 93852
Requeued flit 94116
Requeued flit 94108
Requeued flit 94137
Requeued flit 93931
Requeued flit 94438
Requeued flit 94083
Requeued flit 94860
Requeued flit 94790
Requeued flit 95137
Requeued flit 95106
Requeued flit 95111
Requeued flit 95063
Requeued flit 95342
Requeued flit 95099
Requeued flit 95360
Requeued flit 95575
Requeued flit 95603
Requeued flit 95666
Requeued flit 95791
Requeued flit 95573
Requeued flit 95832
Requeued flit 96312
Requeued flit 95715
Requeued flit 96381
Requeued flit 96248
Requeued flit 95964
Requeued flit 96815
Requeued flit 97276
Requeued flit 96833
Requeued flit 97674
Requeued flit 97418
Requeued flit 97358
Requeued flit 97977
Requeued flit 98115
Requeued flit 98192
Requeued flit 98011
Requeued flit 98578
Requeued flit 98464
Requeued flit 98321
Requeued flit 98627
Requeued flit 98433
Requeued flit 98785
Requeued flit 98997
Requeued flit 99490
Requeued flit 99112
Requeued flit 99599
Requeued flit 99175
Requeued flit 99323
Requeued flit 99462
Requeued flit 99969
Requeued flit 100023
Requeued flit 99187
Requeued flit 99980
Requeued flit 100392
Requeued flit 100707
Requeued flit 100481
Requeued flit 101711
Requeued flit 101789
Requeued flit 101794
Requeued flit 101824
Requeued flit 101532
Requeued flit 102095
Requeued flit 102209
Requeued flit 102287
Requeued flit 102264
Requeued flit 103129
Requeued flit 103475
Requeued flit 103623
Requeued flit 103591
Requeued flit 104060
Requeued flit 103855
Requeued flit 104253
Requeued flit 103869
Requeued flit 104289
Requeued flit 104474
Requeued flit 104621
Requeued flit 104856
Requeued flit 104927
Requeued flit 104855
Requeued flit 105055
Requeued flit 104416
Requeued flit 105318
Requeued flit 105376
Requeued flit 105621
Requeued flit 105403
Requeued flit 105812
Requeued flit 105696
Requeued flit 105592
Requeued flit 105679
Requeued flit 106706
Requeued flit 106536
Requeued flit 107331
Requeued flit 106538
Requeued flit 106844
Requeued flit 106781
Requeued flit 107130
Requeued flit 107505
Requeued flit 107589
Requeued flit 107653
Requeued flit 107924
Requeued flit 108160
Requeued flit 108209
Requeued flit 108176
Requeued flit 108356
Requeued flit 108859
Requeued flit 109022
Requeued flit 108989
Requeued flit 108868
Requeued flit 110020
Requeued flit 110290
Requeued flit 110467
Requeued flit 109843
Requeued flit 110322
Requeued flit 110131
Requeued flit 110701
Requeued flit 111180
Requeued flit 111186
Requeued flit 111233
Requeued flit 111252
Requeued flit 110701
Requeued flit 111526
Requeued flit 111720
Requeued flit 111794
Requeued flit 111552
Requeued flit 111985
Requeued flit 112242
Requeued flit 112367
Requeued flit 112753
Requeued flit 112679
Requeued flit 112585
Requeued flit 112991
Requeued flit 112724
Requeued flit 112947
Requeued flit 113383
Requeued flit 113414
Requeued flit 113394
Requeued flit 113311
Requeued flit 113502
Requeued flit 113311
Requeued flit 114355
Requeued flit 114406
Requeued flit 114622
Requeued flit 114388
Requeued flit 114744
Requeued flit 114840
Requeued flit 115406
Requeued flit 115465
Requeued flit 115694
Requeued flit 115551
Requeued flit 115536
Requeued flit 116088
Requeued flit 116038
Requeued flit 115872
Requeued flit 116307
Requeued flit 116447
Requeued flit 116703
Requeued flit 116793
Requeued flit 116797
Requeued flit 117187
Requeued flit 117293
Requeued flit 117365
Requeued flit 116995
Requeued flit 117525
Requeued flit 117465
Requeued flit 117233
Requeued flit 117839
Requeued flit 118086
Requeued flit 118471
Requeued flit 118550
Requeued flit 118934
Requeued flit 119215
Requeued flit 119109
Requeued flit 119048
Requeued flit 119473
Requeued flit 119475
Requeued flit 119325
Requeued flit 119710
Requeued flit 119850
Requeued flit 119426
Requeued flit 119956
Requeued flit 120027
Requeued flit 120451
Requeued flit 119967
Requeued flit 120925
Requeued flit 120786
Requeued flit 121624
Requeued flit 121758
Requeued flit 122141
Requeued flit 122376
Requeued flit 121855
Requeued flit 122967
Requeued flit 122003
Requeued flit 122990
Requeued flit 122644
Requeued flit 122691
Requeued flit 123882
Requeued flit 123512
Requeued flit 123825
Requeued flit 123852
Requeued flit 124710
Requeued flit 124437
Requeued flit 124602
Requeued flit 124662
Requeued flit 124825
Requeued flit 125346
Requeued flit 125562
Requeued flit 126194
Requeued flit 126460
Requeued flit 126305
Requeued flit 126300
Requeued flit 126291
Requeued flit 126713
Requeued flit 127347
Requeued flit 127122
Requeued flit 127652
Requeued flit 127490
Requeued flit 128049
Requeued flit 128405
Requeued flit 128372
Requeued flit 128375
Requeued flit 128159
Requeued flit 128807
Requeued flit 128889
Requeued flit 128942
Requeued flit 128964
Requeued flit 129274
Requeued flit 129264
Requeued flit 129333
Requeued flit 129024
Requeued flit 129290
Requeued flit 129764
Requeued flit 129429
Requeued flit 129736
Requeued flit 129700
Requeued flit 129664
Requeued flit 130160
Requeued flit 130097
Requeued flit 131060
Requeued flit 130833
Requeued flit 131245
Requeued flit 131032
Requeued flit 131813
Requeued flit 131582
Requeued flit 131929
Requeued flit 132047
Requeued flit 131896
Requeued flit 132322
Requeued flit 132715
Requeued flit 132549
Requeued flit 132876
Requeued flit 133342
Requeued flit 133557
Requeued flit 133438
Requeued flit 134140
Requeued flit 134234
Requeued flit 134662
Requeued flit 134843
Requeued flit 134817
Requeued flit 135277
Requeued flit 136004
Requeued flit 135635
Requeued flit 136271
Requeued flit 136693
Requeued flit 136659
Requeued flit 136793
Requeued flit 136316
Requeued flit 136779
Requeued flit 137002
Requeued flit 137329
Requeued flit 137612
Requeued flit 137534
Requeued flit 137687
Requeued flit 138060
Requeued flit 138081
Requeued flit 138183
Requeued flit 138287
Requeued flit 138588
Requeued flit 138779
Requeued flit 138831
Requeued flit 138682
Requeued flit 138729
Requeued flit 139312
Requeued flit 139269
Requeued flit 139608
Requeued flit 139648
Requeued flit 139751
Requeued flit 139747
Requeued flit 139739
Requeued flit 140047
Requeued flit 140185
Requeued flit 140178
Requeued flit 140573
Requeued flit 140680
Requeued flit 141253
Requeued flit 141230
Requeued flit 141364
Requeued flit 141226
Requeued flit 141446
Requeued flit 142243
Requeued flit 142555
Requeued flit 142477
Requeued flit 142548
Requeued flit 142177
Requeued flit 142911
Requeued flit 142995
Requeued flit 142754
Requeued flit 143238
Requeued flit 143440
Requeued flit 143225
Requeued flit 143935
Requeued flit 143774
Requeued flit 143971
Requeued flit 144045
Requeued flit 144019
Requeued flit 144269
Requeued flit 144357
Requeued flit 144689
Requeued flit 144502
Requeued flit 144700
Requeued flit 144901
Requeued flit 145363
Requeued flit 145125
Requeued flit 145930
Requeued flit 145733
Requeued flit 145494
Requeued flit 146012
Requeued flit 146255
Requeued flit 146109
Requeued flit 146144
Requeued flit 146452
Requeued flit 146417
Requeued flit 146924
Requeued flit 147043
Requeued flit 146954
Requeued flit 147156
Requeued flit 146731
Requeued flit 147313
Requeued flit 147184
Requeued flit 148391
Requeued flit 148405
Requeued flit 148599
Requeued flit 148650
Requeued flit 148635
Requeued flit 148743
Requeued flit 149230
Requeued flit 149160
Requeued flit 150011
Requeued flit 150399
Requeued flit 150721
Requeued flit 150284
Requeued flit 150500
Requeued flit 150978
Requeued flit 151109
Requeued flit 150825
Requeued flit 151595
Requeued flit 151743
Requeued flit 151635
Requeued flit 151745
Requeued flit 151880
Requeued flit 152540
Requeued flit 152507
Requeued flit 152981
Requeued flit 153131
Requeued flit 152883
Requeued flit 153464
Requeued flit 153050
Requeued flit 154029
Requeued flit 153735
Requeued flit 154247
Requeued flit 154616
Requeued flit 154672
Requeued flit 154641
Requeued flit 154805
Requeued flit 154397
Requeued flit 154560
Requeued flit 155077
Requeued flit 154448
Requeued flit 154491
Requeued flit 155044
Requeued flit 154881
Requeued flit 155008
Requeued flit 155653
Requeued flit 155517
Requeued flit 155756
Requeued flit 156299
Requeued flit 156589
Requeued flit 156611
Requeued flit 156523
Requeued flit 156216
Requeued flit 156527
Requeued flit 156215
Requeued flit 156346
Requeued flit 157147
Requeued flit 157335
Requeued flit 157789
Requeued flit 157806
Requeued flit 156992
Requeued flit 158240
Requeued flit 157928
Requeued flit 158303
Requeued flit 158469
Requeued flit 158479
Requeued flit 158338
Requeued flit 158309
Requeued flit 159177
Requeued flit 159121
Requeued flit 159097
Requeued flit 159409
Requeued flit 159745
Requeued flit 159843
Requeued flit 159768
Requeued flit 159724
Requeued flit 159545
Requeued flit 159472
Requeued flit 160421
Requeued flit 160200
Requeued flit 160186
Requeued flit 160780
Requeued flit 160438
Requeued flit 160758
Requeued flit 160806
Requeued flit 160699
Requeued flit 160135
Requeued flit 161122
Requeued flit 161112
Requeued flit 161120
Requeued flit 161576
Requeued flit 161979
Requeued flit 162173
Requeued flit 162323
Requeued flit 162467
Requeued flit 161329
Requeued flit 162368
Requeued flit 163116
Requeued flit 163360
Requeued flit 163214
Requeued flit 163425
Requeued flit 163277
Requeued flit 163692
Requeued flit 164399
Requeued flit 164821
Requeued flit 164973
Requeued flit 164924
Requeued flit 164805
Requeued flit 165419
Requeued flit 164928
Requeued flit 165482
Requeued flit 165656
Requeued flit 165585
Requeued flit 165844
Requeued flit 165696
Requeued flit 165624
Requeued flit 165786
Requeued flit 165900
Requeued flit 166682
Requeued flit 166847
Requeued flit 167118
Requeued flit 166970
Requeued flit 166921
Requeued flit 167296
Requeued flit 167246
Requeued flit 167410
Requeued flit 167381
Requeued flit 167864
Requeued flit 168147
Requeued flit 168551
Requeued flit 168682
Requeued flit 168644
Requeued flit 168991
Requeued flit 169111
Requeued flit 168632
Requeued flit 169134
Requeued flit 169485
Requeued flit 169349
Requeued flit 169750
Requeued flit 169812
Requeued flit 169822
Requeued flit 169807
Requeued flit 169720
Requeued flit 169837
Requeued flit 169714
Requeued flit 169880
Requeued flit 170800
Requeued flit 170844
Requeued flit 170948
Requeued flit 171029
Requeued flit 170766
Requeued flit 171062
Requeued flit 171392
Requeued flit 171209
Requeued flit 171450
Requeued flit 171358
Requeued flit 171274
Requeued flit 172318
Requeued flit 172111
Requeued flit 172481
Requeued flit 172680
Requeued flit 173153
Requeued flit 173159
Requeued flit 173141
Requeued flit 173537
Requeued flit 173800
Requeued flit 174021
Requeued flit 174013
Requeued flit 173602
Requeued flit 174300
Requeued flit 173987
Requeued flit 174209
Requeued flit 174854
Requeued flit 174837
Requeued flit 175262
Requeued flit 175330
Requeued flit 175468
Requeued flit 175681
Requeued flit 175568
Requeued flit 175656
Requeued flit 176129
Requeued flit 176107
Requeued flit 176168
Requeued flit 175443
Requeued flit 176316
Requeued flit 176108
Requeued flit 176134
Requeued flit 176413
Requeued flit 176980
Requeued flit 176631
Requeued flit 176694
Requeued flit 176985
Requeued flit 177427
Requeued flit 177416
Requeued flit 177439
Requeued flit 177404
Requeued flit 177918
Requeued flit 177790
Requeued flit 177953
Requeued flit 178824
Requeued flit 178832
Requeued flit 178668
Requeued flit 178844
Requeued flit 178776
Requeued flit 179249
Requeued flit 179252
Requeued flit 179099
Requeued flit 180038
Requeued flit 180287
Requeued flit 180102
Requeued flit 179765
Requeued flit 180595
Requeued flit 180468
Requeued flit 180769
Requeued flit 180791
Requeued flit 180747
Requeued flit 180590
Requeued flit 180795
Requeued flit 181140
Requeued flit 181760
Requeued flit 182087
Requeued flit 182180
Requeued flit 182104
Requeued flit 182173
Requeued flit 182186
Requeued flit 182952
Requeued flit 182897
Requeued flit 183091
Requeued flit 183492
Requeued flit 183326
Requeued flit 183534
Requeued flit 183574
Requeued flit 183441
Requeued flit 183598
Requeued flit 184009
Requeued flit 184233
Requeued flit 184214
Requeued flit 184212
Requeued flit 184844
Requeued flit 185120
Requeued flit 185299
Requeued flit 185259
Requeued flit 185263
Requeued flit 185333
Requeued flit 185380
Requeued flit 185049
Requeued flit 186164
Requeued flit 186326
Requeued flit 186430
Requeued flit 186200
Requeued flit 186056
Requeued flit 186315
Requeued flit 186524
Requeued flit 186564
Requeued flit 187147
Requeued flit 187139
Requeued flit 187469
Requeued flit 187465
Requeued flit 187321
Requeued flit 187955
Requeued flit 188006
Requeued flit 188027
Requeued flit 188080
Requeued flit 188520
Requeued flit 188333
Requeued flit 188565
Requeued flit 188659
Requeued flit 188253
Requeued flit 188539
Requeued flit 189031
Requeued flit 188277
Requeued flit 188599
Requeued flit 188540
Requeued flit 189393
Requeued flit 189223
Requeued flit 189928
Requeued flit 189608
Requeued flit 189493
Requeued flit 189955
Requeued flit 189872
Requeued flit 189483
Requeued flit 189541
Requeued flit 190113
Requeued flit 190784
Requeued flit 190707
Requeued flit 191136
Requeued flit 191180
Requeued flit 191433
7494 | node29 | Enqueuing flit 192022 (packet 192022) at time 7494.
7494 | traffic_manager | Finding output VC for flit 192022:
7494 | traffic_manager |   Selected output VC 1.
7494 | network_0/router_3_5 | Adding VC range [0,1] at output port 1 for flit 192022 (input port 4, destination 44).
7494 | node29 | Generating lookahead routing info for flit 192022.
7494 | node29 | Injecting flit 192022 into subnet 0 at time 7494 with priority 0.
7495 | network_0/network_0_fchan_ingress29 | Beginning channel traversal for flit 192022 with delay 1.
7495 | network_0/network_0_fchan_ingress29 | Completed channel traversal for flit 192022.
7496 | network_0/router_3_5 | Received flit 192022 from channel at input 4.
7496 | network_0/router_3_5 | Adding flit 192022 to VC 1 at input 4 (state: idle, empty).
7496 | network_0/router_3_5 | Using precomputed lookahead routing information for VC 1 at input 4 (front: 192022).
7496 | network_0/router_3_5/buf_4/vc_1 | Changing state from idle to vc_alloc.
7496 | network_0/router_3_5 | Beginning VC allocation for VC 1 at input 4 (front: 192022).
7496 | network_0/router_3_5 |   Requesting VC 0 at output 1 (in_pri: 0, out_pri: 0).
7496 | network_0/router_3_5 |   Requesting VC 1 at output 1 (in_pri: 0, out_pri: 0).
7496 | network_0/router_3_5/vc_allocator | Input requests = [ 1 -> [ 2@0 3@0 ]  2 -> [ 8@0 9@0 ]  4 -> [ 6@0 7@0 ]  7 -> [ 4@0 5@0 ]  9 -> [ 2@0 3@0 ]  ], output requests = [ 2 -> [ 1@0 9@0 ]  3 -> [ 1@0 9@0 ]  4 -> [ 7@0 ]  5 -> [ 7@0 ]  6 -> [ 4@0 ]  7 -> [ 4@0 ]  8 -> [ 2@0 ]  9 -> [ 2@0 ]  ].
7496 | network_0/router_3_5/vc_allocator | Input grants = [ 1 -> 2  2 -> 8  4 -> 6  7 -> 5  9 -> 3  ], output grants = [ 2 -> 1  3 -> 9  5 -> 7  6 -> 4  8 -> 2  ].
7496 | network_0/router_3_5 | Assigning VC 1 at output 1 to VC 1 at input 4.
7496 | network_0/router_3_5 | Completed VC allocation for VC 1 at input 4 (front: 192022).
7496 | network_0/router_3_5 |   Acquiring assigned VC 1 at output 1.
7496 | network_0/router_3_5/buf_4/vc_1 | Changing state from vc_alloc to active.
7496 | network_0/router_3_5 | Beginning switch allocation for VC 1 at input 4 (front: 192022).
7496 | network_0/router_3_5 |   Requesting output 1.0 (non-spec, pri: 0).
7496 | network_0/router_3_5/sw_allocator | Input requests = [ 0 -> [ 1@0 ]  1 -> [ 4@0 ]  2 -> [ 3@0 ]  3 -> [ 2@0 ]  4 -> [ 1@0 ]  ], output requests = [ 1 -> [ 0@0 4@0 ]  2 -> [ 3@0 ]  3 -> [ 2@0 ]  4 -> [ 1@0 ]  ].
7496 | network_0/router_3_5/sw_allocator | Input grants = [ 1 -> 4  2 -> 3  3 -> 2  4 -> 1  ], output grants = [ 1 -> 4  2 -> 3  3 -> 2  4 -> 1  ].
7496 | network_0/router_3_5 | Assigning output 1.0 to VC 1 at input 4.0.
7496 | network_0/router_3_5 | Completed switch allocation for VC 1 at input 4 (front: 192022).
7496 | network_0/router_3_5 |   Scheduling switch connection from input 4.0 to output 1.0.
7496 | network_0/router_3_5 | Updating lookahead routing information for flit 192022.
7496 | network_0/router_3_4 | Adding VC range [0,1] at output port 2 for flit 192022 (input port 0, destination 44).
7497 | network_0/router_3_5 | Beginning crossbar traversal for flit 192022 from input 4.0 to output 1.0.
7497 | network_0/router_3_5 | Completed crossbar traversal for flit 192022 from input 4.0 to output 1.0.
7497 | network_0/router_3_5 | Buffering flit 192022 at output 1.
7497 | network_0/router_3_5 | Sending flit 192022 to channel at output 1.
7498 | network_0/network_0_fchan_117 | Beginning channel traversal for flit 192022 with delay 1.
7498 | network_0/network_0_fchan_117 | Completed channel traversal for flit 192022.
7499 | network_0/router_3_4 | Received flit 192022 from channel at input 0.
7499 | network_0/router_3_4 | Adding flit 192022 to VC 1 at input 0 (state: idle, empty).
7499 | network_0/router_3_4 | Using precomputed lookahead routing information for VC 1 at input 0 (front: 192022).
7499 | network_0/router_3_4/buf_0/vc_1 | Changing state from idle to vc_alloc.
7499 | network_0/router_3_4 | Beginning VC allocation for VC 1 at input 0 (front: 192022).
7499 | network_0/router_3_4 |   Requesting VC 0 at output 2 (in_pri: 0, out_pri: 0).
7499 | network_0/router_3_4 |   Requesting VC 1 at output 2 (in_pri: 0, out_pri: 0).
7499 | network_0/router_3_4/vc_allocator | Input requests = [ 1 -> [ 4@0 5@0 ]  ], output requests = [ 4 -> [ 1@0 ]  5 -> [ 1@0 ]  ].
7499 | network_0/router_3_4/vc_allocator | Input grants = [ 1 -> 4  ], output grants = [ 4 -> 1  ].
7499 | network_0/router_3_4 | Assigning VC 0 at output 2 to VC 1 at input 0.
7499 | network_0/router_3_4 | Completed VC allocation for VC 1 at input 0 (front: 192022).
7499 | network_0/router_3_4 |   Acquiring assigned VC 0 at output 2.
7499 | network_0/router_3_4/buf_0/vc_1 | Changing state from vc_alloc to active.
7499 | network_0/router_3_4 | Beginning switch allocation for VC 1 at input 0 (front: 192022).
7499 | network_0/router_3_4 |   Requesting output 2.0 (non-spec, pri: 0).
7499 | network_0/router_3_4/sw_allocator | Input requests = [ 0 -> [ 2@0 ]  ], output requests = [ 2 -> [ 0@0 ]  ].
7499 | network_0/router_3_4/sw_allocator | Input grants = [ 0 -> 2  ], output grants = [ 2 -> 0  ].
7499 | network_0/router_3_4 | Assigning output 2.0 to VC 1 at input 0.0.
7499 | network_0/router_3_4 | Completed switch allocation for VC 1 at input 0 (front: 192022).
7499 | network_0/router_3_4 |   Scheduling switch connection from input 0.0 to output 2.0.
7499 | network_0/router_3_4 | Updating lookahead routing information for flit 192022.
7499 | network_0/router_4_4 | Adding VC range [0,1] at output port 2 for flit 192022 (input port 3, destination 44).
7500 | network_0/router_3_4 | Beginning crossbar traversal for flit 192022 from input 0.0 to output 2.0.
7500 | network_0/router_3_4 | Completed crossbar traversal for flit 192022 from input 0.0 to output 2.0.
7500 | network_0/router_3_4 | Buffering flit 192022 at output 2.
7500 | network_0/router_3_4 | Sending flit 192022 to channel at output 2.
7501 | network_0/network_0_fchan_114 | Beginning channel traversal for flit 192022 with delay 1.
7501 | network_0/network_0_fchan_114 | Completed channel traversal for flit 192022.
7502 | network_0/router_4_4 | Received flit 192022 from channel at input 3.
Requeued flit 191753
7502 | network_0/router_4_4 | Adding flit 192022 to VC 0 at input 3 (state: idle, empty).
7502 | network_0/router_4_4 | Using precomputed lookahead routing information for VC 0 at input 3 (front: 192022).
7502 | network_0/router_4_4/buf_3/vc_0 | Changing state from idle to vc_alloc.
7502 | network_0/router_4_4 | Beginning VC allocation for VC 0 at input 3 (front: 192022).
7502 | network_0/router_4_4 |   Requesting VC 0 at output 2 (in_pri: 0, out_pri: 0).
7502 | network_0/router_4_4 |   Requesting VC 1 at output 2 (in_pri: 0, out_pri: 0).
7502 | network_0/router_4_4/vc_allocator | Input requests = [ 0 -> [ 2@0 3@0 ]  2 -> [ 4@0 5@0 ]  4 -> [ 8@0 9@0 ]  6 -> [ 4@0 5@0 ]  ], output requests = [ 2 -> [ 0@0 ]  3 -> [ 0@0 ]  4 -> [ 2@0 6@0 ]  5 -> [ 2@0 6@0 ]  8 -> [ 4@0 ]  9 -> [ 4@0 ]  ].
7502 | network_0/router_4_4/vc_allocator | Input grants = [ 0 -> 3  2 -> 4  4 -> 8  ], output grants = [ 3 -> 0  4 -> 2  8 -> 4  ].
7502 | network_0/router_4_4 | VC allocation failed for VC 0 at input 3.
7502 | network_0/router_4_4 | Completed VC allocation for VC 0 at input 3 (front: 192022).
7502 | network_0/router_4_4 |   No output VC allocated.
7502 | network_0/router_4_4 | Beginning VC allocation for VC 0 at input 3 (front: 192022).
7502 | network_0/router_4_4 |   VC 0 at output 2 is in use by VC 0 at input 1 (front flit: 191934).
7502 | network_0/router_4_4 |   Requesting VC 1 at output 2 (in_pri: 0, out_pri: 0).
7502 | network_0/router_4_4/vc_allocator | Input requests = [ 6 -> [ 5@0 ]  ], output requests = [ 5 -> [ 6@0 ]  ].
7502 | network_0/router_4_4/vc_allocator | Input grants = [ 6 -> 5  ], output grants = [ 5 -> 6  ].
7502 | network_0/router_4_4 | Assigning VC 1 at output 2 to VC 0 at input 3.
7502 | network_0/router_4_4 | Completed VC allocation for VC 0 at input 3 (front: 192022).
7502 | network_0/router_4_4 |   Acquiring assigned VC 1 at output 2.
7502 | network_0/router_4_4/buf_3/vc_0 | Changing state from vc_alloc to active.
Requeued flit 191802
7503 | network_0/router_4_4 | Beginning switch allocation for VC 0 at input 3 (front: 192022).
7503 | network_0/router_4_4 |   Requesting output 2.0 (non-spec, pri: 0).
7503 | network_0/router_4_4/sw_allocator | Input requests = [ 3 -> [ 2@0 ]  ], output requests = [ 2 -> [ 3@0 ]  ].
7503 | network_0/router_4_4/sw_allocator | Input grants = [ 3 -> 2  ], output grants = [ 2 -> 3  ].
7503 | network_0/router_4_4 | Assigning output 2.0 to VC 0 at input 3.0.
7503 | network_0/router_4_4 | Completed switch allocation for VC 0 at input 3 (front: 192022).
7503 | network_0/router_4_4 |   Scheduling switch connection from input 3.0 to output 2.0.
7503 | network_0/router_4_4 | Updating lookahead routing information for flit 192022.
7503 | network_0/router_5_4 | Adding VC range [0,1] at output port 4 for flit 192022 (input port 3, destination 44).
7503 | network_0/router_4_4 | Beginning crossbar traversal for flit 192022 from input 3.0 to output 2.0.
7503 | network_0/router_4_4 | Completed crossbar traversal for flit 192022 from input 3.0 to output 2.0.
7503 | network_0/router_4_4 | Buffering flit 192022 at output 2.
7504 | network_0/router_4_4 | Sending flit 192022 to channel at output 2.
7505 | network_0/network_0_fchan_146 | Beginning channel traversal for flit 192022 with delay 1.
7505 | network_0/network_0_fchan_146 | Completed channel traversal for flit 192022.
7506 | network_0/router_5_4 | Received flit 192022 from channel at input 3.
Requeued flit 192070
7506 | network_0/router_5_4 | Adding flit 192022 to VC 1 at input 3 (state: idle, empty).
7506 | network_0/router_5_4 | Using precomputed lookahead routing information for VC 1 at input 3 (front: 192022).
7506 | network_0/router_5_4/buf_3/vc_1 | Changing state from idle to vc_alloc.
7506 | network_0/router_5_4 | Beginning VC allocation for VC 1 at input 3 (front: 192022).
7506 | network_0/router_5_4 |   Requesting VC 0 at output 4 (in_pri: 0, out_pri: 0).
7506 | network_0/router_5_4 |   Requesting VC 1 at output 4 (in_pri: 0, out_pri: 0).
7506 | network_0/router_5_4/vc_allocator | Input requests = [ 1 -> [ 2@0 3@0 ]  3 -> [ 6@0 ]  4 -> [ 6@0 ]  7 -> [ 8@0 9@0 ]  ], output requests = [ 2 -> [ 1@0 ]  3 -> [ 1@0 ]  6 -> [ 3@0 4@0 ]  8 -> [ 7@0 ]  9 -> [ 7@0 ]  ].
7506 | network_0/router_5_4/vc_allocator | Input grants = [ 1 -> 2  3 -> 6  7 -> 9  ], output grants = [ 2 -> 1  6 -> 3  9 -> 7  ].
7506 | network_0/router_5_4 | Assigning VC 1 at output 4 to VC 1 at input 3.
7506 | network_0/router_5_4 | Completed VC allocation for VC 1 at input 3 (front: 192022).
7506 | network_0/router_5_4 |   Acquiring assigned VC 1 at output 4.
7506 | network_0/router_5_4/buf_3/vc_1 | Changing state from vc_alloc to active.
7506 | network_0/router_5_4 | Beginning switch allocation for VC 1 at input 3 (front: 192022).
7506 | network_0/router_5_4 |   Requesting output 4.0 (non-spec, pri: 0).
7506 | network_0/router_5_4/sw_allocator | Input requests = [ 0 -> [ 1@0 ]  1 -> [ 3@0 ]  3 -> [ 4@0 ]  ], output requests = [ 1 -> [ 0@0 ]  3 -> [ 1@0 ]  4 -> [ 3@0 ]  ].
7506 | network_0/router_5_4/sw_allocator | Input grants = [ 0 -> 1  1 -> 3  3 -> 4  ], output grants = [ 1 -> 0  3 -> 1  4 -> 3  ].
7506 | network_0/router_5_4 | Assigning output 4.0 to VC 1 at input 3.0.
7506 | network_0/router_5_4 | Completed switch allocation for VC 1 at input 3 (front: 192022).
7506 | network_0/router_5_4 |   Scheduling switch connection from input 3.0 to output 4.0.
Requeued flit 191342
7507 | network_0/router_5_4 | Beginning crossbar traversal for flit 192022 from input 3.0 to output 4.0.
7507 | network_0/router_5_4 | Completed crossbar traversal for flit 192022 from input 3.0 to output 4.0.
7507 | network_0/router_5_4 | Buffering flit 192022 at output 4.
7507 | network_0/router_5_4 | Sending flit 192022 to channel at output 4.
7508 | network_0/network_0_fchan_egress44 | Beginning channel traversal for flit 192022 with delay 1.
7508 | network_0/network_0_fchan_egress44 | Completed channel traversal for flit 192022.
7509 | node44 | Ejecting flit 192022 (packet 192022) from VC 1.
7509 | node44 | Injecting credit for VC 1 into subnet 0.
7509 | node44 | Retiring flit 192022 (packet 192022, src = 29, dest = 44, hops = 4, flat = 15).
7509 | node44 | Retiring packet 192022 (plat = 15, nlat = 15, frag = 0, src = 29, dest = 44).
Requeued flit 192368
Requeued flit 192910
Requeued flit 193478
Requeued flit 193687
Requeued flit 193977
Requeued flit 194782
Requeued flit 194497
Requeued flit 194475
Requeued flit 194592
Requeued flit 195178
Requeued flit 194933
Requeued flit 195410
Requeued flit 195354
Requeued flit 195380
Requeued flit 195870
Requeued flit 195398
Requeued flit 195809
Requeued flit 195794
Requeued flit 196023
Requeued flit 196121
Requeued flit 196784
Requeued flit 196692
Requeued flit 197023
Requeued flit 197383
Requeued flit 197117
Requeued flit 197237
Requeued flit 197161
Requeued flit 197234
Requeued flit 197653
Requeued flit 197410
Requeued flit 197745
Requeued flit 197735
Requeued flit 197839
Requeued flit 198008
Requeued flit 198271
Requeued flit 198206
Requeued flit 198581
Requeued flit 198915
Requeued flit 199518
Requeued flit 199455
Requeued flit 199007
Requeued flit 199815
Requeued flit 199825
Requeued flit 200197
Requeued flit 200059
Requeued flit 200466
Requeued flit 200590
Requeued flit 200905
Requeued flit 201472
Requeued flit 201858
Requeued flit 201389
Requeued flit 201771
Requeued flit 201771
Requeued flit 202371
Requeued flit 202504
Requeued flit 202523
Requeued flit 202351
Requeued flit 202843
Requeued flit 203542
Requeued flit 202932
Requeued flit 203639
Requeued flit 204349
Requeued flit 204138
Requeued flit 204385
Requeued flit 204820
Requeued flit 203939
Requeued flit 204622
Requeued flit 204880
Requeued flit 204615
Requeued flit 205022
Requeued flit 204569
Requeued flit 205123
Requeued flit 204658
Requeued flit 204894
Requeued flit 205237
Requeued flit 205807
Requeued flit 205749
Requeued flit 205958
Requeued flit 205995
Requeued flit 205815
Requeued flit 206119
Requeued flit 206843
Requeued flit 207233
Requeued flit 207053
Requeued flit 207502
Requeued flit 207422
Requeued flit 207428
Requeued flit 207888
Requeued flit 207790
Requeued flit 208217
Requeued flit 208001
Requeued flit 208139
Requeued flit 208211
Requeued flit 208679
Requeued flit 208712
Requeued flit 208537
Requeued flit 208928
Requeued flit 208969
Requeued flit 209150
Requeued flit 209374
Requeued flit 209348
Requeued flit 209285
Requeued flit 209220
Requeued flit 209446
Requeued flit 209531
Requeued flit 210166
Requeued flit 209594
Requeued flit 210090
Requeued flit 210208
Requeued flit 210236
Requeued flit 210460
Requeued flit 210977
Requeued flit 210672
Requeued flit 211352
Requeued flit 211777
Requeued flit 211779
Requeued flit 212049
Requeued flit 211640
Requeued flit 211858
Requeued flit 212887
Requeued flit 213509
Requeued flit 213552
Requeued flit 213140
Requeued flit 213749
Requeued flit 213883
Requeued flit 213622
Requeued flit 213909
Requeued flit 214013
Requeued flit 214139
Requeued flit 214253
Requeued flit 214328
Requeued flit 214671
Requeued flit 214812
Requeued flit 214824
Requeued flit 214865
Requeued flit 214207
Requeued flit 214774
Requeued flit 214921
Requeued flit 215066
Requeued flit 214641
Requeued flit 215371
Requeued flit 215732
Requeued flit 215497
Requeued flit 215554
Requeued flit 216069
Requeued flit 216351
Requeued flit 216785
Requeued flit 217186
Requeued flit 217197
Requeued flit 217512
Requeued flit 218154
Requeued flit 217543
Requeued flit 218467
Requeued flit 218661
Requeued flit 218896
Requeued flit 218527
Requeued flit 218870
Requeued flit 219488
Requeued flit 219295
Requeued flit 219920
Requeued flit 220006
Requeued flit 220276
Requeued flit 220446
Requeued flit 220793
Requeued flit 220471
Requeued flit 221062
Requeued flit 221639
Requeued flit 221764
Requeued flit 222140
Requeued flit 221952
Requeued flit 222262
Requeued flit 222341
Requeued flit 222534
Requeued flit 223003
Requeued flit 223290
Requeued flit 223247
Requeued flit 223341
Requeued flit 223945
Requeued flit 223937
Requeued flit 223526
Requeued flit 223295
Requeued flit 224204
Requeued flit 224185
Requeued flit 224098
Requeued flit 224915
Requeued flit 224947
Requeued flit 224769
Requeued flit 224994
Requeued flit 225474
Requeued flit 225500
Requeued flit 225634
Requeued flit 225500
Requeued flit 226376
Requeued flit 226613
Requeued flit 226591
Requeued flit 226517
Requeued flit 227038
Requeued flit 226972
Requeued flit 227456
Requeued flit 227719
Requeued flit 227799
Requeued flit 227593
Requeued flit 228081
Requeued flit 228467
Requeued flit 229180
Requeued flit 229318
Requeued flit 229209
Requeued flit 229485
Requeued flit 229703
Requeued flit 229579
Requeued flit 229735
Requeued flit 230159
Requeued flit 229781
Requeued flit 229284
Requeued flit 230520
Requeued flit 230612
Requeued flit 230702
Requeued flit 231049
Requeued flit 230982
Requeued flit 230995
Requeued flit 231104
Requeued flit 231512
Requeued flit 231893
Requeued flit 231994
Requeued flit 232122
Requeued flit 232052
Requeued flit 232298
Requeued flit 232086
Requeued flit 232674
Requeued flit 232811
Requeued flit 233110
Requeued flit 232897
Requeued flit 233508
Requeued flit 233436
Requeued flit 233622
Requeued flit 233580
Requeued flit 233272
Requeued flit 233876
Requeued flit 233257
Requeued flit 233925
Requeued flit 233096
Requeued flit 234124
Requeued flit 234075
Requeued flit 234378
Requeued flit 234225
Requeued flit 234551
Requeued flit 234591
Requeued flit 234300
Requeued flit 234396
Requeued flit 234378
Requeued flit 234735
Requeued flit 234300
Requeued flit 235083
Requeued flit 235337
Requeued flit 236050
Requeued flit 236067
Requeued flit 235518
Requeued flit 236105
Requeued flit 235718
Requeued flit 235860
Requeued flit 236017
Requeued flit 236505
Requeued flit 236447
Requeued flit 236468
Requeued flit 236665
Requeued flit 236901
Requeued flit 236965
Requeued flit 236965
Requeued flit 237295
Requeued flit 237139
Requeued flit 237592
Requeued flit 237707
Requeued flit 237650
Requeued flit 237962
Requeued flit 237409
Requeued flit 238046
Requeued flit 238141
Requeued flit 238652
Requeued flit 238549
Requeued flit 238791
Requeued flit 238451
Requeued flit 238833
Requeued flit 239013
Requeued flit 239239
Requeued flit 238983
Requeued flit 239454
Requeued flit 239901
Requeued flit 239890
Requeued flit 239811
Requeued flit 239686
Requeued flit 240036
Requeued flit 240168
Requeued flit 240055
Requeued flit 240159
Requeued flit 240395
Requeued flit 240363
Requeued flit 240649
Requeued flit 240704
Requeued flit 240992
Requeued flit 241039
Requeued flit 241899
Requeued flit 241858
Requeued flit 242083
Requeued flit 241328
Requeued flit 241588
Requeued flit 242118
Requeued flit 241864
Requeued flit 242279
Requeued flit 242198
Requeued flit 242362
Requeued flit 242132
Requeued flit 242894
Requeued flit 242722
Requeued flit 243080
Requeued flit 242799
Requeued flit 243466
Requeued flit 243473
Requeued flit 243091
Requeued flit 243058
Requeued flit 243005
Requeued flit 243674
Requeued flit 243632
Requeued flit 243045
Requeued flit 244271
Requeued flit 243925
Requeued flit 244866
Requeued flit 244997
Requeued flit 245040
Requeued flit 245072
Requeued flit 245500
Requeued flit 245195
Requeued flit 246086
Requeued flit 245859
Requeued flit 246165
Requeued flit 246777
Requeued flit 246216
Requeued flit 246842
Requeued flit 247185
Requeued flit 247831
Requeued flit 248108
Requeued flit 248212
Requeued flit 248262
Requeued flit 248218
Requeued flit 248393
Requeued flit 248340
Requeued flit 248505
Requeued flit 248445
Requeued flit 248507
Requeued flit 248824
Requeued flit 248907
Requeued flit 248795
Requeued flit 248755
Requeued flit 248835
Requeued flit 249059
Requeued flit 249318
Requeued flit 249059
Requeued flit 249735
Requeued flit 250018
Requeued flit 250397
Requeued flit 250129
Requeued flit 250265
Requeued flit 250452
Requeued flit 250800
Requeued flit 250231
Requeued flit 250708
Requeued flit 250990
Requeued flit 250474
Requeued flit 250892
Requeued flit 250675
Requeued flit 251262
Requeued flit 251541
Requeued flit 251661
Requeued flit 251656
Requeued flit 251492
Requeued flit 251705
Requeued flit 251757
Requeued flit 251763
Requeued flit 252411
Requeued flit 252783
Requeued flit 252568
Requeued flit 252149
Requeued flit 253118
Requeued flit 253206
Requeued flit 253321
Requeued flit 253399
Requeued flit 253164
Requeued flit 253256
Requeued flit 253599
Requeued flit 253709
Requeued flit 253482
Requeued flit 253856
Requeued flit 254076
Requeued flit 254453
Requeued flit 254492
Requeued flit 254413
Requeued flit 255104
Requeued flit 255299
Requeued flit 255026
Class 0:
Packet latency average = 24.1131
	minimum = 5
	maximum = 70
Network latency average = 24.1131
	minimum = 5
	maximum = 70
Slowest packet = 129440
Flit latency average = 24.1131
	minimum = 5
	maximum = 70
Slowest flit = 129440
Fragmentation average = 0
	minimum = 0
	maximum = 0
Injected packet rate average = 0.40003
	minimum = 0.3858 (at node 7)
	maximum = 0.4111 (at node 34)
Accepted packet rate average = 0.399045
	minimum = 0.3869 (at node 52)
	maximum = 0.4122 (at node 28)
Injected flit rate average = 0.40003
	minimum = 0.3858 (at node 7)
	maximum = 0.4111 (at node 34)
Accepted flit rate average= 0.399045
	minimum = 0.3869 (at node 52)
	maximum = 0.4122 (at node 28)
Injected packet length average = 1
Accepted packet length average = 1
Total in-flight flits = 630 (0 measured)
latency change    = 1
throughput change = 1
Requeued flit 255789
Requeued flit 255197
Requeued flit 255726
Requeued flit 256070
Requeued flit 256071
Requeued flit 255823
Requeued flit 256257
Requeued flit 256439
Requeued flit 256418
Requeued flit 255717
Requeued flit 255543
Requeued flit 256205
Requeued flit 256707
Requeued flit 256931
Requeued flit 257326
Requeued flit 257365
Requeued flit 257458
Requeued flit 257207
Requeued flit 257004
Requeued flit 257390
Requeued flit 257471
Requeued flit 257658
Requeued flit 257839
Requeued flit 257715
Requeued flit 257647
Requeued flit 257798
Requeued flit 257318
Requeued flit 258215
Requeued flit 258181
Requeued flit 258580
Requeued flit 258590
Requeued flit 258052
Requeued flit 258521
Requeued flit 259586
Requeued flit 259782
Requeued flit 260716
Requeued flit 260739
Requeued flit 261043
Requeued flit 261122
Requeued flit 260984
Requeued flit 261482
Requeued flit 261360
Requeued flit 262044
Requeued flit 262087
Requeued flit 262263
Requeued flit 262310
Requeued flit 262388
Requeued flit 262794
Requeued flit 262567
Requeued flit 263253
Requeued flit 263303
Requeued flit 264132
Requeued flit 263785
Requeued flit 264576
Requeued flit 264685
Requeued flit 264683
Requeued flit 264564
Requeued flit 265029
Requeued flit 265117
Requeued flit 265531
Requeued flit 265316
Requeued flit 265869
Requeued flit 266004
Requeued flit 266036
Requeued flit 266027
Requeued flit 266160
Requeued flit 266049
Requeued flit 266595
Requeued flit 266858
Requeued flit 266773
Requeued flit 266959
Requeued flit 267016
Requeued flit 267038
Requeued flit 267383
Requeued flit 267194
Requeued flit 267807
Requeued flit 267988
Requeued flit 268069
Requeued flit 267986
Requeued flit 268171
Requeued flit 267915
Requeued flit 268465
Requeued flit 269052
Requeued flit 269265
Requeued flit 269651
Requeued flit 269847
Requeued flit 270838
Requeued flit 270631
Requeued flit 271208
Requeued flit 270779
Requeued flit 271081
Requeued flit 271072
Requeued flit 271573
Requeued flit 271818
Requeued flit 271914
Requeued flit 272687
Requeued flit 272745
Requeued flit 272794
Requeued flit 272776
Requeued flit 272962
Requeued flit 273031
Requeued flit 272191
Requeued flit 273214
Requeued flit 272805
Requeued flit 273641
Requeued flit 273115
Requeued flit 273719
Requeued flit 273694
Requeued flit 273449
Requeued flit 273535
Requeued flit 274184
Requeued flit 275228
Requeued flit 274891
Requeued flit 275396
Requeued flit 275295
Requeued flit 275364
Requeued flit 276304
Requeued flit 276541
Requeued flit 276922
Requeued flit 277371
Requeued flit 277216
Requeued flit 276808
Requeued flit 277605
Requeued flit 277290
Requeued flit 277009
Requeued flit 277298
Requeued flit 277225
Requeued flit 277735
Requeued flit 278312
Requeued flit 278862
Requeued flit 278785
Requeued flit 279981
Requeued flit 280043
Requeued flit 280085
Requeued flit 279832
Requeued flit 280029
Requeued flit 280276
Requeued flit 280818
Requeued flit 281120
Requeued flit 281346
Requeued flit 281447
Requeued flit 281916
Requeued flit 282039
Requeued flit 282352
Requeued flit 282046
Requeued flit 282645
Requeued flit 282864
Requeued flit 283248
Requeued flit 282634
Requeued flit 283225
Requeued flit 283337
Requeued flit 283501
Requeued flit 283341
Requeued flit 282788
Requeued flit 283795
Requeued flit 284329
Requeued flit 284544
Requeued flit 284714
Requeued flit 284692
Requeued flit 285312
Requeued flit 285409
Requeued flit 285476
Requeued flit 286097
Requeued flit 285876
Requeued flit 286329
Requeued flit 286313
Requeued flit 286548
Requeued flit 286086
Requeued flit 286452
Requeued flit 287023
Requeued flit 287776
Requeued flit 288041
Requeued flit 288385
Requeued flit 287840
Requeued flit 288536
Requeued flit 288449
Requeued flit 288632
Requeued flit 289065
Requeued flit 289208
Requeued flit 289675
Requeued flit 289338
Requeued flit 290079
Requeued flit 290016
Requeued flit 290303
Requeued flit 290898
Requeued flit 291089
Requeued flit 291098
Requeued flit 290924
Requeued flit 291289
Requeued flit 291815
Requeued flit 292298
Requeued flit 293106
Requeued flit 293264
Requeued flit 293268
Requeued flit 293308
Requeued flit 293507
Requeued flit 293212
Requeued flit 293343
Requeued flit 293644
Requeued flit 293909
Requeued flit 294311
Requeued flit 294622
Requeued flit 294407
Requeued flit 294495
Requeued flit 294695
Requeued flit 294869
Requeued flit 294985
Requeued flit 295068
Requeued flit 294954
Requeued flit 295484
Requeued flit 295695
Requeued flit 295655
Requeued flit 295600
Requeued flit 295676
Requeued flit 296438
Requeued flit 296326
Requeued flit 296441
Requeued flit 296101
Requeued flit 296546
Requeued flit 297122
Requeued flit 296717
Requeued flit 297106
Requeued flit 297020
Requeued flit 297297
Requeued flit 297094
Requeued flit 297534
Requeued flit 297519
Requeued flit 298042
Requeued flit 298007
Requeued flit 298220
Requeued flit 298263
Requeued flit 298410
Requeued flit 298937
Requeued flit 298752
Requeued flit 298973
Requeued flit 299966
Requeued flit 299802
Requeued flit 299684
Requeued flit 300279
Requeued flit 300144
Requeued flit 299677
Requeued flit 300403
Requeued flit 300743
Requeued flit 300756
Requeued flit 301254
Requeued flit 301313
Requeued flit 301255
Requeued flit 301405
Requeued flit 301513
Requeued flit 301077
Requeued flit 301547
Requeued flit 301526
Requeued flit 301427
Requeued flit 301236
Requeued flit 301945
Requeued flit 301879
Requeued flit 302359
Requeued flit 302950
Requeued flit 302987
Requeued flit 302903
Requeued flit 303333
Requeued flit 302908
Requeued flit 303315
Requeued flit 303171
Requeued flit 303866
Requeued flit 304050
Requeued flit 303342
Requeued flit 304163
Requeued flit 303597
Requeued flit 304239
Requeued flit 304305
Requeued flit 303792
Requeued flit 304424
Requeued flit 304772
Requeued flit 304755
Requeued flit 304763
Requeued flit 304699
Requeued flit 305129
Requeued flit 305211
Requeued flit 304447
Requeued flit 305009
Requeued flit 305096
Requeued flit 305386
Requeued flit 305548
Requeued flit 305629
Requeued flit 305369
Requeued flit 306056
Requeued flit 306160
Requeued flit 307030
Requeued flit 307338
Requeued flit 307194
Requeued flit 307445
Requeued flit 307375
Requeued flit 307052
Requeued flit 307732
Requeued flit 307652
Requeued flit 308393
Requeued flit 308130
Requeued flit 308138
Requeued flit 307701
Requeued flit 308436
Requeued flit 307842
Requeued flit 309030
Requeued flit 308552
Requeued flit 309514
Requeued flit 309084
Requeued flit 309197
Requeued flit 309645
Requeued flit 309708
Requeued flit 309908
Requeued flit 309879
Requeued flit 310068
Requeued flit 310478
Requeued flit 311068
Requeued flit 310861
Requeued flit 311349
Requeued flit 311528
Requeued flit 310810
Requeued flit 311836
Requeued flit 311783
Requeued flit 311951
Requeued flit 311946
Requeued flit 312907
Requeued flit 312786
Requeued flit 312377
Requeued flit 313045
Requeued flit 313440
Requeued flit 313188
Requeued flit 313274
Requeued flit 314058
Requeued flit 313915
Requeued flit 314161
Requeued flit 314309
Requeued flit 314245
Requeued flit 314851
Requeued flit 314403
Requeued flit 314910
Requeued flit 314973
Requeued flit 315277
Requeued flit 315000
Requeued flit 315014
Requeued flit 315602
Requeued flit 315550
Requeued flit 315600
Requeued flit 316186
Requeued flit 316074
Requeued flit 315892
Requeued flit 316502
Requeued flit 316710
Requeued flit 316540
Requeued flit 317151
Requeued flit 316605
Requeued flit 316890
Requeued flit 318043
Requeued flit 318101
Requeued flit 318337
Requeued flit 318171
Requeued flit 318232
Requeued flit 317895
Requeued flit 318649
Requeued flit 318052
Requeued flit 319074
Requeued flit 318988
Requeued flit 319304
Requeued flit 319357
Requeued flit 319368
Requeued flit 319337
Requeued flit 319369
Requeued flit 319370
Requeued flit 319352
Requeued flit 319566
Requeued flit 319855
Requeued flit 319547
Requeued flit 319519
Requeued flit 320269
Requeued flit 320219
Requeued flit 320611
Requeued flit 320287
Requeued flit 320805
Requeued flit 320454
Requeued flit 320444
Requeued flit 320558
Requeued flit 321200
Requeued flit 321458
Requeued flit 321098
Requeued flit 321447
Requeued flit 321401
Requeued flit 321971
Requeued flit 322127
Requeued flit 321917
Requeued flit 322193
Requeued flit 322020
Requeued flit 322561
Requeued flit 322626
Requeued flit 322983
Requeued flit 322994
Requeued flit 323079
Requeued flit 322969
Requeued flit 322930
Requeued flit 323305
Requeued flit 323942
Requeued flit 323451
Requeued flit 324264
Requeued flit 324354
Requeued flit 323944
Requeued flit 324448
Requeued flit 323627
Requeued flit 324695
Requeued flit 325024
Requeued flit 324824
Requeued flit 325363
Requeued flit 324749
Requeued flit 325249
Requeued flit 325794
Requeued flit 325721
Requeued flit 326060
Requeued flit 326059
Requeued flit 326357
Requeued flit 326140
Requeued flit 326504
Requeued flit 326548
Requeued flit 326946
Requeued flit 327051
Requeued flit 326741
Requeued flit 327086
Requeued flit 327309
Requeued flit 327526
Requeued flit 327559
Requeued flit 327666
Requeued flit 328284
Requeued flit 327957
Requeued flit 328482
Requeued flit 328851
Requeued flit 328326
Requeued flit 329208
Requeued flit 328994
Requeued flit 329458
Requeued flit 329989
Requeued flit 329803
Requeued flit 330286
Requeued flit 330320
Requeued flit 330468
Requeued flit 330274
Requeued flit 330686
Requeued flit 331393
Requeued flit 331588
Requeued flit 331692
Requeued flit 331891
Requeued flit 331946
Requeued flit 332308
Requeued flit 332629
Requeued flit 333014
Requeued flit 333052
Requeued flit 333211
Requeued flit 333249
Requeued flit 333090
Requeued flit 333408
Requeued flit 333010
Requeued flit 333305
Requeued flit 333705
Requeued flit 333803
Requeued flit 334206
Requeued flit 334567
Requeued flit 334599
Requeued flit 334970
Requeued flit 335197
Requeued flit 335417
Requeued flit 335896
Requeued flit 336110
Requeued flit 335689
Requeued flit 335938
Requeued flit 336386
Requeued flit 336514
Requeued flit 336528
Requeued flit 337028
Requeued flit 337202
Requeued flit 337121
Requeued flit 337347
Requeued flit 337512
Requeued flit 337652
Requeued flit 337619
Requeued flit 338096
Requeued flit 338222
Requeued flit 338180
Requeued flit 338711
Requeued flit 338601
Requeued flit 338382
Requeued flit 338531
Requeued flit 338922
Requeued flit 339389
Requeued flit 339229
Requeued flit 339876
Requeued flit 339749
Requeued flit 340019
Requeued flit 340121
Requeued flit 340082
Requeued flit 340006
Requeued flit 340313
Requeued flit 339505
Requeued flit 340342
Requeued flit 340312
Requeued flit 340509
Requeued flit 340750
Requeued flit 340487
Requeued flit 340804
Requeued flit 340998
Requeued flit 341152
Requeued flit 340790
Requeued flit 341097
Requeued flit 341338
Requeued flit 341509
Requeued flit 342028
Requeued flit 341888
Requeued flit 341812
Requeued flit 342069
Requeued flit 341849
Requeued flit 342459
Requeued flit 341944
Requeued flit 342209
Requeued flit 342376
Requeued flit 343229
Requeued flit 343045
Requeued flit 343478
Requeued flit 343320
Requeued flit 343070
Requeued flit 343715
Requeued flit 343800
Requeued flit 344232
Requeued flit 344450
Requeued flit 343821
Requeued flit 344430
Requeued flit 344389
Requeued flit 344797
Requeued flit 344646
Requeued flit 344935
Requeued flit 344432
Requeued flit 344950
Requeued flit 345304
Requeued flit 345388
Requeued flit 345471
Requeued flit 345320
Requeued flit 345070
Requeued flit 345456
Requeued flit 345536
Requeued flit 345359
Requeued flit 345289
Requeued flit 345331
Requeued flit 345481
Requeued flit 346274
Requeued flit 345884
Requeued flit 346570
Requeued flit 346374
Requeued flit 346544
Requeued flit 347033
Requeued flit 347461
Requeued flit 348427
Requeued flit 350157
Requeued flit 349912
Requeued flit 350033
Requeued flit 350289
Requeued flit 350457
Requeued flit 350626
Requeued flit 350785
Requeued flit 350656
Requeued flit 350667
Requeued flit 350920
Requeued flit 350720
Requeued flit 351064
Requeued flit 349971
Requeued flit 351144
Requeued flit 351472
Requeued flit 351509
Requeued flit 351679
Requeued flit 351930
Requeued flit 352307
Requeued flit 351582
Requeued flit 352700
Requeued flit 352721
Requeued flit 352325
Requeued flit 352834
Requeued flit 353360
Requeued flit 353543
Requeued flit 353346
Requeued flit 353805
Requeued flit 353962
Requeued flit 353971
Requeued flit 354184
Requeued flit 354393
Requeued flit 354785
Requeued flit 355037
Requeued flit 355558
Requeued flit 354989
Requeued flit 355922
Requeued flit 355591
Requeued flit 356314
Requeued flit 356432
Requeued flit 356812
Requeued flit 357076
Requeued flit 356739
Requeued flit 356794
Requeued flit 356909
Requeued flit 357526
Requeued flit 357191
Requeued flit 357220
Requeued flit 357723
Requeued flit 357829
Requeued flit 357944
Requeued flit 357921
Requeued flit 357904
Requeued flit 358375
Requeued flit 358541
Requeued flit 358518
Requeued flit 358448
Requeued flit 357919
Requeued flit 358497
Requeued flit 358542
Requeued flit 358975
Requeued flit 358621
Requeued flit 358491
Requeued flit 359072
Requeued flit 358678
Requeued flit 359254
Requeued flit 359003
Requeued flit 359776
Requeued flit 359748
Requeued flit 359992
Requeued flit 360204
Requeued flit 360189
Requeued flit 360127
Requeued flit 360501
Requeued flit 360693
Requeued flit 360822
Requeued flit 361267
Requeued flit 361578
Requeued flit 361740
Requeued flit 362187
Requeued flit 362307
Requeued flit 362224
Requeued flit 362650
Requeued flit 362624
Requeued flit 362698
Requeued flit 363164
Requeued flit 363274
Requeued flit 363375
Requeued flit 363574
Requeued flit 363606
Requeued flit 363562
Requeued flit 363305
Requeued flit 363375
Requeued flit 363470
Requeued flit 363809
Requeued flit 363812
Requeued flit 364156
Requeued flit 364126
Requeued flit 364588
Requeued flit 364508
Requeued flit 365077
Requeued flit 365140
Requeued flit 365284
Requeued flit 365370
Requeued flit 365823
Requeued flit 365116
Requeued flit 365781
Requeued flit 365434
Requeued flit 365893
Requeued flit 366786
Requeued flit 367072
Requeued flit 367081
Requeued flit 366708
Requeued flit 367370
Requeued flit 367689
Requeued flit 367859
Requeued flit 368023
Requeued flit 368318
Requeued flit 368211
Requeued flit 368644
Requeued flit 368622
Requeued flit 369166
Requeued flit 369190
Requeued flit 369599
Requeued flit 370090
Requeued flit 370619
Requeued flit 370776
Requeued flit 370866
Requeued flit 370874
Requeued flit 371561
Requeued flit 371941
Requeued flit 372064
Requeued flit 372025
Requeued flit 372021
Requeued flit 372088
Requeued flit 372342
Requeued flit 372586
Requeued flit 372955
Requeued flit 373252
Requeued flit 373549
Requeued flit 373736
Requeued flit 373741
Requeued flit 373972
Requeued flit 373396
Requeued flit 374367
Requeued flit 374614
Requeued flit 374485
Requeued flit 374421
Requeued flit 374506
Requeued flit 374770
Requeued flit 374545
Requeued flit 374126
Requeued flit 375150
Requeued flit 374935
Requeued flit 375341
Requeued flit 375506
Requeued flit 375865
Requeued flit 376037
Requeued flit 375875
Requeued flit 375642
Requeued flit 376274
Requeued flit 376253
Requeued flit 376319
Requeued flit 375612
Requeued flit 376647
Requeued flit 376435
Requeued flit 376580
Requeued flit 376601
Requeued flit 376844
Requeued flit 377144
Requeued flit 377632
Requeued flit 377926
Requeued flit 378034
Requeued flit 377927
Requeued flit 378346
Requeued flit 378356
Requeued flit 378743
Requeued flit 379142
Requeued flit 378628
Requeued flit 379146
Requeued flit 379080
Requeued flit 379269
Requeued flit 379451
Requeued flit 379724
Requeued flit 379978
Requeued flit 379889
Requeued flit 380222
Requeued flit 380495
Requeued flit 380318
Requeued flit 380656
Requeued flit 380562
Requeued flit 380757
Requeued flit 380805
Requeued flit 380909
Requeued flit 381069
Requeued flit 381099
Requeued flit 382448
Requeued flit 382547
Requeued flit 382483
Requeued flit 382447
Requeued flit 382425
Requeued flit 382427
Requeued flit 382317
Requeued flit 382702
Requeued flit 382656
Requeued flit 383065
Requeued flit 382801
Requeued flit 382577
Requeued flit 382614
Requeued flit 383097
Requeued flit 383317
Requeued flit 383427
Requeued flit 383504
Requeued flit 383902
Requeued flit 384471
Requeued flit 384049
Requeued flit 383985
Requeued flit 384160
Requeued flit 384832
Requeued flit 384734
Requeued flit 385220
Requeued flit 385067
Requeued flit 385632
Requeued flit 385576
Requeued flit 385977
Requeued flit 386577
Requeued flit 386629
Requeued flit 386468
Requeued flit 386976
Requeued flit 387342
Requeued flit 386745
Requeued flit 387408
Requeued flit 387391
Requeued flit 387924
Requeued flit 388112
Requeued flit 388259
Requeued flit 388445
Requeued flit 388192
Requeued flit 388736
Requeued flit 388135
Requeued flit 388874
Requeued flit 388961
Requeued flit 389520
Requeued flit 390409
Requeued flit 389769
Requeued flit 390280
Requeued flit 390975
Requeued flit 390946
Requeued flit 391026
Requeued flit 391086
Requeued flit 391063
Requeued flit 390506
Requeued flit 391546
Requeued flit 391738
Requeued flit 392008
Requeued flit 392447
Requeued flit 392723
Requeued flit 393097
Requeued flit 392564
Requeued flit 393181
Requeued flit 392513
Requeued flit 393730
Requeued flit 393941
Requeued flit 393440
Requeued flit 393994
Requeued flit 395275
Requeued flit 395425
Requeued flit 395477
Requeued flit 395413
Requeued flit 395062
Requeued flit 395594
Requeued flit 395646
Requeued flit 395456
Requeued flit 395713
Requeued flit 396886
Requeued flit 396949
Requeued flit 396475
Requeued flit 396617
Requeued flit 396751
Requeued flit 397541
Requeued flit 397595
Requeued flit 397635
Requeued flit 397747
Requeued flit 397801
Requeued flit 398258
Requeued flit 398486
Requeued flit 399254
Requeued flit 399265
Requeued flit 399278
Requeued flit 399539
Requeued flit 399511
Requeued flit 399611
Requeued flit 400266
Requeued flit 400458
Requeued flit 400816
Requeued flit 401353
Requeued flit 401430
Requeued flit 401306
Requeued flit 401047
Requeued flit 401800
Requeued flit 401837
Requeued flit 402372
Requeued flit 402551
Requeued flit 402732
Requeued flit 402337
Requeued flit 402972
Requeued flit 402695
Requeued flit 403024
Requeued flit 403259
Requeued flit 402653
Requeued flit 403450
Requeued flit 403104
Requeued flit 403614
Requeued flit 403626
Requeued flit 403717
Requeued flit 403735
Requeued flit 404271
Requeued flit 404409
Requeued flit 404721
Requeued flit 404691
Requeued flit 404927
Requeued flit 404989
Requeued flit 405089
Requeued flit 404964
Requeued flit 405378
Requeued flit 405235
Requeued flit 405502
Requeued flit 405475
Requeued flit 405773
Requeued flit 405750
Requeued flit 406056
Requeued flit 406523
Requeued flit 406681
Requeued flit 406667
Requeued flit 406806
Requeued flit 407651
Requeued flit 407289
Requeued flit 407651
Requeued flit 408229
Requeued flit 408068
Requeued flit 408251
Requeued flit 408451
Requeued flit 408653
Requeued flit 408932
Requeued flit 409288
Requeued flit 409380
Requeued flit 408962
Requeued flit 409204
Requeued flit 409261
Requeued flit 409638
Requeued flit 409637
Requeued flit 410326
Requeued flit 410524
Requeued flit 410787
Requeued flit 410462
Requeued flit 410985
Requeued flit 411045
Requeued flit 411004
Requeued flit 411218
Requeued flit 410818
Requeued flit 411142
Requeued flit 411722
Requeued flit 411877
Requeued flit 412001
Requeued flit 412385
Requeued flit 412296
Requeued flit 412586
Requeued flit 412807
Requeued flit 412569
Requeued flit 412858
Requeued flit 413117
Requeued flit 412996
Requeued flit 412944
Requeued flit 413143
Requeued flit 413780
Requeued flit 414002
Requeued flit 413860
Requeued flit 414228
Requeued flit 414411
Requeued flit 414641
Requeued flit 414860
Requeued flit 414934
Requeued flit 414970
Requeued flit 415131
Requeued flit 415306
Requeued flit 415389
Requeued flit 415247
Requeued flit 415577
Requeued flit 415692
Requeued flit 415639
Requeued flit 415600
Requeued flit 416314
Requeued flit 416565
Requeued flit 416644
Requeued flit 417153
Requeued flit 417638
Requeued flit 417703
Requeued flit 417779
Requeued flit 417955
Requeued flit 418036
Requeued flit 418140
Requeued flit 418259
Requeued flit 418544
Requeued flit 418257
Requeued flit 418828
Requeued flit 419045
Requeued flit 419234
Requeued flit 418912
Requeued flit 419099
Requeued flit 418630
Requeued flit 419372
Requeued flit 419765
Requeued flit 419762
Requeued flit 419697
Requeued flit 419764
Requeued flit 420325
Requeued flit 420134
Requeued flit 420601
Requeued flit 420450
Requeued flit 420702
Requeued flit 420620
Requeued flit 421167
Requeued flit 421230
Requeued flit 421839
Requeued flit 421750
Requeued flit 422059
Requeued flit 422008
Requeued flit 421865
Requeued flit 421844
Requeued flit 422592
Requeued flit 422299
Requeued flit 423144
Requeued flit 422980
Requeued flit 423485
Requeued flit 423835
Requeued flit 423818
Requeued flit 423202
Requeued flit 424223
Requeued flit 424583
Requeued flit 424423
Requeued flit 424858
Requeued flit 425010
Requeued flit 425060
Requeued flit 425333
Requeued flit 425511
Requeued flit 425279
Requeued flit 425817
Requeued flit 426130
Requeued flit 426549
Requeued flit 426494
Requeued flit 426951
Requeued flit 426960
Requeued flit 427087
Requeued flit 426657
Requeued flit 427082
Requeued flit 427473
Requeued flit 427329
Requeued flit 427526
Requeued flit 427820
Requeued flit 427805
Requeued flit 427970
Requeued flit 428132
Requeued flit 427986
Requeued flit 428166
Requeued flit 428666
Requeued flit 428483
Requeued flit 428643
Requeued flit 428688
Requeued flit 429034
Requeued flit 429002
Requeued flit 428827
Requeued flit 429389
Requeued flit 430216
Requeued flit 430422
Requeued flit 429869
Requeued flit 430449
Requeued flit 430558
Requeued flit 430185
Requeued flit 430480
Requeued flit 430254
Requeued flit 430862
Requeued flit 431439
Requeued flit 431226
Requeued flit 431443
Requeued flit 431760
Requeued flit 431508
Requeued flit 432338
Requeued flit 432108
Requeued flit 432535
Requeued flit 431934
Requeued flit 432658
Requeued flit 432713
Requeued flit 432897
Requeued flit 432535
Requeued flit 433368
Requeued flit 433799
Requeued flit 433192
Requeued flit 434133
Requeued flit 434113
Requeued flit 434282
Requeued flit 434435
Requeued flit 434795
Requeued flit 434944
Requeued flit 434696
Requeued flit 435616
Requeued flit 434938
Requeued flit 435589
Requeued flit 435434
Requeued flit 435633
Requeued flit 435705
Requeued flit 436135
Requeued flit 435650
Requeued flit 436006
Requeued flit 436374
Requeued flit 436873
Requeued flit 436897
Requeued flit 437063
Requeued flit 437359
Requeued flit 437986
Requeued flit 437985
Requeued flit 437505
Requeued flit 438940
Requeued flit 439599
Requeued flit 439242
Requeued flit 439571
Requeued flit 439412
Requeued flit 440187
Requeued flit 439730
Requeued flit 439749
Requeued flit 440412
Requeued flit 440385
Requeued flit 440324
Requeued flit 440761
Requeued flit 440522
Requeued flit 440431
Requeued flit 440761
Requeued flit 440978
Requeued flit 441088
Requeued flit 441381
Requeued flit 441383
Requeued flit 441559
Requeued flit 441567
Requeued flit 441440
Requeued flit 441675
Requeued flit 441697
Requeued flit 442327
Requeued flit 442872
Requeued flit 442713
Requeued flit 443060
Requeued flit 443413
Requeued flit 442954
Requeued flit 443794
Requeued flit 443146
Requeued flit 443764
Requeued flit 443866
Requeued flit 444194
Requeued flit 444465
Requeued flit 444761
Requeued flit 445368
Requeued flit 445680
Requeued flit 445780
Requeued flit 445570
Requeued flit 445431
Requeued flit 446018
Requeued flit 446278
Requeued flit 446061
Requeued flit 446455
Requeued flit 446852
Requeued flit 446770
Requeued flit 447262
Requeued flit 447712
Requeued flit 447937
Requeued flit 447983
Requeued flit 448366
Requeued flit 447675
Requeued flit 448319
Requeued flit 448425
Requeued flit 448544
Requeued flit 448519
Requeued flit 448843
Requeued flit 448770
Requeued flit 448983
Requeued flit 449766
Requeued flit 449502
Requeued flit 450526
Requeued flit 450862
Requeued flit 451140
Requeued flit 451512
Requeued flit 451057
Requeued flit 451907
Requeued flit 451894
Requeued flit 452183
Requeued flit 451932
Requeued flit 452292
Requeued flit 452637
Requeued flit 452133
Requeued flit 452663
Requeued flit 452609
Requeued flit 452849
Requeued flit 453091
Requeued flit 452842
Requeued flit 452202
Requeued flit 453647
Requeued flit 453763
Requeued flit 454109
Requeued flit 454112
Requeued flit 454267
Requeued flit 455013
Requeued flit 454751
Requeued flit 455093
Requeued flit 454586
Requeued flit 455644
Requeued flit 456071
Requeued flit 455277
Requeued flit 456096
Requeued flit 456604
Requeued flit 456312
Requeued flit 456948
Requeued flit 456865
Requeued flit 457063
Requeued flit 457135
Requeued flit 456658
Requeued flit 456921
Requeued flit 457116
Requeued flit 457343
Requeued flit 457531
Requeued flit 456863
Requeued flit 457910
Requeued flit 458139
Requeued flit 457566
Requeued flit 458300
Requeued flit 457987
Requeued flit 457983
Requeued flit 458462
Requeued flit 458693
Requeued flit 458373
Requeued flit 458548
Requeued flit 458791
Requeued flit 459057
Requeued flit 458945
Requeued flit 459276
Requeued flit 459379
Requeued flit 459603
Requeued flit 459737
Requeued flit 459545
Requeued flit 459670
Requeued flit 460245
Requeued flit 460210
Requeued flit 460250
Requeued flit 460242
Requeued flit 459573
Requeued flit 460327
Requeued flit 460547
Requeued flit 460791
Requeued flit 460921
Requeued flit 461624
Requeued flit 461561
Requeued flit 462245
Requeued flit 462166
Requeued flit 462610
Requeued flit 462177
Requeued flit 462349
Requeued flit 462782
Requeued flit 463198
Requeued flit 463387
Requeued flit 463015
Requeued flit 463599
Requeued flit 463635
Requeued flit 463753
Requeued flit 463930
Requeued flit 463968
Requeued flit 464364
Requeued flit 464374
Requeued flit 464231
Requeued flit 464602
Requeued flit 465045
Requeued flit 464911
Requeued flit 465355
Requeued flit 465368
Requeued flit 465674
Requeued flit 465663
Requeued flit 465869
Requeued flit 466010
Requeued flit 465674
Requeued flit 466172
Requeued flit 466348
Requeued flit 466193
Requeued flit 467102
Requeued flit 467374
Requeued flit 468061
Requeued flit 468134
Requeued flit 468086
Requeued flit 467981
Requeued flit 468560
Requeued flit 469025
Requeued flit 469017
Requeued flit 468875
Requeued flit 469199
Requeued flit 469336
Requeued flit 469577
Requeued flit 469825
Requeued flit 470091
Requeued flit 470143
Requeued flit 469771
Requeued flit 470011
Requeued flit 470273
Requeued flit 470487
Requeued flit 470360
Requeued flit 470491
Requeued flit 470794
Requeued flit 470739
Requeued flit 470140
Requeued flit 470862
Requeued flit 471089
Requeued flit 471223
Requeued flit 471749
Requeued flit 471516
Requeued flit 472016
Requeued flit 472124
Requeued flit 472429
Requeued flit 472356
Requeued flit 472707
Requeued flit 473098
Requeued flit 473186
Requeued flit 473401
Requeued flit 473016
Requeued flit 473631
Requeued flit 473656
Requeued flit 473829
Requeued flit 473885
Requeued flit 473942
Requeued flit 474034
Requeued flit 474206
Requeued flit 474051
Requeued flit 474302
Requeued flit 474308
Requeued flit 474084
Requeued flit 474165
Requeued flit 474239
Requeued flit 474825
Requeued flit 474807
Requeued flit 474712
Requeued flit 475053
Requeued flit 475092
Requeued flit 475162
Requeued flit 475234
Requeued flit 475966
Requeued flit 475539
Requeued flit 475943
Requeued flit 475748
Requeued flit 476684
Requeued flit 476352
Requeued flit 476519
Requeued flit 476859
Requeued flit 476754
Requeued flit 477047
Requeued flit 476806
Requeued flit 477170
Requeued flit 477417
Requeued flit 477745
Requeued flit 477917
Requeued flit 478293
Requeued flit 478364
Requeued flit 478378
Requeued flit 478314
Requeued flit 478777
Requeued flit 479099
Requeued flit 479229
Requeued flit 479242
Requeued flit 478801
Requeued flit 479181
Requeued flit 478645
Requeued flit 479155
Requeued flit 479056
Requeued flit 479867
Requeued flit 479725
Requeued flit 479933
Requeued flit 480239
Requeued flit 480084
Requeued flit 480361
Requeued flit 480164
Requeued flit 480797
Requeued flit 480942
Requeued flit 480578
Requeued flit 480960
Requeued flit 480599
Requeued flit 480782
Requeued flit 481359
Requeued flit 481475
Requeued flit 481350
Requeued flit 481308
Requeued flit 482082
Requeued flit 482321
Requeued flit 482237
Requeued flit 482227
Requeued flit 482240
Requeued flit 482619
Requeued flit 483124
Requeued flit 483371
Requeued flit 483338
Requeued flit 483456
Requeued flit 483575
Requeued flit 484100
Requeued flit 484629
Requeued flit 483876
Requeued flit 484241
Requeued flit 484892
Requeued flit 485341
Requeued flit 485409
Requeued flit 485571
Requeued flit 485305
Requeued flit 485649
Requeued flit 485597
Requeued flit 485796
Requeued flit 486067
Requeued flit 486137
Requeued flit 486204
Requeued flit 485595
Requeued flit 486504
Requeued flit 486677
Requeued flit 486495
Requeued flit 486652
Requeued flit 486248
Requeued flit 486860
Requeued flit 486420
Requeued flit 486805
Requeued flit 487268
Requeued flit 487488
Requeued flit 487185
Requeued flit 487639
Requeued flit 487737
Requeued flit 487629
Requeued flit 487800
Requeued flit 487863
Requeued flit 487725
Requeued flit 488106
Requeued flit 488508
Requeued flit 489496
Requeued flit 489780
Requeued flit 489640
Requeued flit 489641
Requeued flit 489813
Requeued flit 489512
Requeued flit 489962
Requeued flit 489893
Requeued flit 489529
Requeued flit 490602
Requeued flit 490722
Requeued flit 490788
Requeued flit 490819
Requeued flit 490393
Requeued flit 490163
Requeued flit 490926
Requeued flit 490842
Requeued flit 491176
Requeued flit 491111
Requeued flit 491069
Requeued flit 491197
Requeued flit 491148
Requeued flit 491336
Requeued flit 491487
Requeued flit 491861
Requeued flit 492660
Requeued flit 492954
Requeued flit 493185
Requeued flit 493182
Requeued flit 493173
Requeued flit 492906
Requeued flit 493419
Requeued flit 493554
Requeued flit 493591
Requeued flit 493107
Requeued flit 493271
Requeued flit 493508
Requeued flit 493324
Requeued flit 493172
Requeued flit 493270
Requeued flit 494172
Requeued flit 493839
Requeued flit 494094
Requeued flit 494072
Requeued flit 494631
Requeued flit 494626
Requeued flit 495081
Requeued flit 495016
Requeued flit 495262
Requeued flit 495002
Requeued flit 495195
Requeued flit 495791
Requeued flit 495244
Requeued flit 495843
Requeued flit 496070
Requeued flit 495946
Requeued flit 496315
Requeued flit 496518
Requeued flit 496906
Requeued flit 496920
Requeued flit 496863
Requeued flit 496882
Requeued flit 496719
Requeued flit 496983
Requeued flit 497377
Requeued flit 497104
Requeued flit 497392
Requeued flit 497573
Requeued flit 497534
Requeued flit 497067
Requeued flit 497760
Requeued flit 497542
Requeued flit 497053
Requeued flit 498064
Requeued flit 497878
Requeued flit 498360
Requeued flit 498703
Requeued flit 498505
Requeued flit 499098
Requeued flit 499200
Requeued flit 499348
Requeued flit 499508
Requeued flit 499352
Requeued flit 499550
Requeued flit 499121
Requeued flit 499241
Requeued flit 500193
Requeued flit 500234
Requeued flit 500260
Requeued flit 500195
Requeued flit 500247
Requeued flit 500109
Requeued flit 500607
Requeued flit 500791
Requeued flit 500683
Requeued flit 500994
Requeued flit 500982
Requeued flit 501003
Requeued flit 501368
Requeued flit 501691
[...]
Requeued flit 1411808
Requeued flit 1411795
Requeued flit 1412279
Requeued flit 1412079
Requeued flit 1412583
Requeued flit 1412320
Requeued flit 1412510
Requeued flit 1412502
Requeued flit 1412572
Requeued flit 1412463
Requeued flit 1413434
Requeued flit 1413605
Requeued flit 1413921
Requeued flit 1414019
Requeued flit 1413717
Requeued flit 1413762
Requeued flit 1413901
Requeued flit 1414332
Requeued flit 1414569
Requeued flit 1414480
Requeued flit 1414115
Requeued flit 1414805
Requeued flit 1414979
Requeued flit 1415491
Requeued flit 1415703
Requeued flit 1415168
Requeued flit 1415483
Requeued flit 1416007
Requeued flit 1416384
Requeued flit 1416208
Requeued flit 1416135
Requeued flit 1415971
Requeued flit 1416755
Requeued flit 1416694
Requeued flit 1417096
Requeued flit 1417253
Requeued flit 1417448
Requeued flit 1417050
Requeued flit 1417646
Requeued flit 1417968
Requeued flit 1418001
Requeued flit 1417916
Requeued flit 1418275
Requeued flit 1418308
Requeued flit 1418481
Requeued flit 1418689
Requeued flit 1418451
Requeued flit 1418917
Requeued flit 1418520
Requeued flit 1419001
Requeued flit 1418497
Requeued flit 1419395
Requeued flit 1419252
Requeued flit 1419569
Requeued flit 1419716
Requeued flit 1419811
Requeued flit 1419396
Requeued flit 1420039
Requeued flit 1420697
Requeued flit 1420836
Requeued flit 1420735
Requeued flit 1420490
Requeued flit 1421045
Requeued flit 1421426
Requeued flit 1421117
Requeued flit 1421338
Requeued flit 1421510
Requeued flit 1421564
Requeued flit 1421670
Requeued flit 1421856
Requeued flit 1421721
Requeued flit 1422445
Requeued flit 1422545
Requeued flit 1422249
Requeued flit 1422451
Requeued flit 1422490
Requeued flit 1422099
Requeued flit 1422221
Requeued flit 1423334
Requeued flit 1423318
Requeued flit 1422804
Requeued flit 1423910
Requeued flit 1424046
Requeued flit 1424604
Requeued flit 1424694
Requeued flit 1424693
Requeued flit 1424746
Requeued flit 1424735
Requeued flit 1424304
Requeued flit 1424715
Requeued flit 1425047
Requeued flit 1425169
Requeued flit 1425308
Requeued flit 1425574
Requeued flit 1425633
Requeued flit 1425233
Requeued flit 1425569
Requeued flit 1426349
Requeued flit 1426600
Requeued flit 1426447
Requeued flit 1427339
Requeued flit 1427362
Requeued flit 1427411
Requeued flit 1427307
Requeued flit 1427639
Requeued flit 1427758
Requeued flit 1428161
Requeued flit 1428291
Requeued flit 1427388
Requeued flit 1428358
Requeued flit 1428428
Requeued flit 1428844
Requeued flit 1429387
Requeued flit 1429398
Requeued flit 1429497
Requeued flit 1429380
Requeued flit 1429053
Requeued flit 1429555
Requeued flit 1429597
Requeued flit 1429938
Requeued flit 1429854
Requeued flit 1430283
Requeued flit 1430323
Requeued flit 1430117
Requeued flit 1430451
Requeued flit 1430176
Requeued flit 1430497
Requeued flit 1430500
Requeued flit 1431219
Requeued flit 1431165
Requeued flit 1431124
Requeued flit 1431201
Requeued flit 1432255
Requeued flit 1432461
Requeued flit 1431858
Requeued flit 1432566
Requeued flit 1432862
Requeued flit 1433047
Requeued flit 1433174
Requeued flit 1433538
Requeued flit 1433444
Requeued flit 1433778
Requeued flit 1434551
Requeued flit 1434587
Requeued flit 1434047
Requeued flit 1434523
Requeued flit 1435107
Requeued flit 1435416
Requeued flit 1435634
Requeued flit 1435745
Requeued flit 1435863
Requeued flit 1435661
Requeued flit 1436498
Requeued flit 1436681
Requeued flit 1436795
Requeued flit 1436808
Requeued flit 1436523
Requeued flit 1436926
Requeued flit 1436624
Requeued flit 1436865
Requeued flit 1437470
Requeued flit 1437430
Requeued flit 1437186
Requeued flit 1437595
Requeued flit 1437749
Requeued flit 1438086
Requeued flit 1438738
Requeued flit 1438397
Requeued flit 1439047
Requeued flit 1439526
Requeued flit 1439581
Requeued flit 1439846
Requeued flit 1439452
Requeued flit 1439801
Requeued flit 1440229
Requeued flit 1440335
Requeued flit 1440633
Requeued flit 1440517
Requeued flit 1440961
Requeued flit 1441232
Requeued flit 1441882
Requeued flit 1441721
Requeued flit 1442103
Requeued flit 1442014
Requeued flit 1442008
Requeued flit 1442045
Requeued flit 1442623
Requeued flit 1442771
Requeued flit 1442311
Requeued flit 1442856
Requeued flit 1443259
Requeued flit 1443224
Requeued flit 1443377
Requeued flit 1442870
Requeued flit 1443841
Requeued flit 1443977
Requeued flit 1443727
Requeued flit 1444181
Requeued flit 1444239
Requeued flit 1444662
Requeued flit 1444635
Requeued flit 1444547
Requeued flit 1444909
Requeued flit 1444661
Requeued flit 1444447
Requeued flit 1445519
Requeued flit 1445511
Requeued flit 1446127
Requeued flit 1446052
Requeued flit 1445932
Requeued flit 1446654
Requeued flit 1446767
Requeued flit 1446482
Requeued flit 1446924
Requeued flit 1446543
Requeued flit 1447109
Requeued flit 1447030
Requeued flit 1446826
Requeued flit 1447604
Requeued flit 1447492
Requeued flit 1448067
Requeued flit 1448149
Requeued flit 1448186
Requeued flit 1448122
Requeued flit 1448959
Requeued flit 1448698
Requeued flit 1449102
Requeued flit 1449484
Requeued flit 1449890
Requeued flit 1450228
Requeued flit 1450358
Requeued flit 1450230
Requeued flit 1450880
Requeued flit 1450506
Requeued flit 1451155
Requeued flit 1451182
Requeued flit 1452112
Requeued flit 1452266
Requeued flit 1452279
Requeued flit 1452039
Requeued flit 1452794
Requeued flit 1452613
Requeued flit 1453009
Requeued flit 1452871
Requeued flit 1453318
Requeued flit 1453467
Requeued flit 1453359
Requeued flit 1453640
Requeued flit 1453762
Requeued flit 1453672
Requeued flit 1454128
Requeued flit 1454326
Requeued flit 1453829
Requeued flit 1454673
Requeued flit 1454629
Requeued flit 1455280
Requeued flit 1455310
Requeued flit 1455202
Requeued flit 1455346
Requeued flit 1455666
Requeued flit 1455179
Requeued flit 1455721
Requeued flit 1456326
Requeued flit 1456139
Requeued flit 1456552
Requeued flit 1457013
Requeued flit 1457834
Requeued flit 1457793
Requeued flit 1458121
Requeued flit 1458071
Requeued flit 1458420
Requeued flit 1458595
Requeued flit 1458370
Requeued flit 1458626
Requeued flit 1458094
Requeued flit 1457950
Requeued flit 1458826
Requeued flit 1458856
Requeued flit 1458894
Requeued flit 1458489
Requeued flit 1458953
Requeued flit 1459069
Requeued flit 1459127
Requeued flit 1459130
Requeued flit 1459277
Requeued flit 1459408
Requeued flit 1459315
Requeued flit 1459552
Requeued flit 1459132
Requeued flit 1459354
Requeued flit 1459971
Requeued flit 1460320
Requeued flit 1460261
Requeued flit 1460160
Requeued flit 1460753
Requeued flit 1460162
Requeued flit 1460843
Requeued flit 1461095
Requeued flit 1460887
Requeued flit 1461410
Requeued flit 1461202
Requeued flit 1462140
Requeued flit 1462151
Requeued flit 1461745
Requeued flit 1462645
Requeued flit 1462815
Requeued flit 1462879
Requeued flit 1462819
Requeued flit 1462963
Requeued flit 1463731
Requeued flit 1463803
Requeued flit 1463560
Requeued flit 1463774
Requeued flit 1463919
Requeued flit 1464056
Requeued flit 1464526
Requeued flit 1464801
Requeued flit 1465312
Requeued flit 1465440
Requeued flit 1465170
Requeued flit 1465585
Requeued flit 1466068
Requeued flit 1465738
Requeued flit 1466041
Requeued flit 1466629
Requeued flit 1466657
Requeued flit 1466425
Requeued flit 1466387
Requeued flit 1466615
Requeued flit 1466498
Requeued flit 1466866
Requeued flit 1467459
Requeued flit 1468621
Requeued flit 1468436
Requeued flit 1468710
Requeued flit 1468137
Requeued flit 1468723
Requeued flit 1468337
Requeued flit 1468922
Requeued flit 1469061
Requeued flit 1468750
Requeued flit 1469273
Requeued flit 1469034
Requeued flit 1469181
Requeued flit 1469127
Requeued flit 1469339
Requeued flit 1469408
Requeued flit 1469292
Requeued flit 1469906
Requeued flit 1470123
Requeued flit 1470196
Requeued flit 1469982
Requeued flit 1470354
Requeued flit 1470541
Requeued flit 1470012
Requeued flit 1470517
Requeued flit 1470581
Requeued flit 1470905
Requeued flit 1470770
Requeued flit 1470844
Requeued flit 1470879
Requeued flit 1471563
Requeued flit 1471640
Requeued flit 1471814
Requeued flit 1471302
Requeued flit 1472013
Requeued flit 1472149
Requeued flit 1472065
Requeued flit 1472432
Requeued flit 1472436
Requeued flit 1472140
Requeued flit 1472477
Requeued flit 1472315
Requeued flit 1472942
Requeued flit 1472694
Requeued flit 1472969
Requeued flit 1473634
Requeued flit 1473097
Requeued flit 1473456
Requeued flit 1473866
Requeued flit 1474090
Requeued flit 1474442
Requeued flit 1475466
Requeued flit 1475676
Requeued flit 1475722
Requeued flit 1475744
Requeued flit 1476830
Requeued flit 1477097
Requeued flit 1476893
Requeued flit 1477085
Requeued flit 1477656
Requeued flit 1477728
Requeued flit 1477589
Requeued flit 1478040
Requeued flit 1477695
Requeued flit 1477569
Requeued flit 1478273
Requeued flit 1478320
Requeued flit 1478570
Requeued flit 1478655
Requeued flit 1478475
Requeued flit 1479150
Requeued flit 1479350
Requeued flit 1479777
Requeued flit 1479738
Requeued flit 1479434
Requeued flit 1480377
Requeued flit 1480735
Requeued flit 1481159
Requeued flit 1481061
Requeued flit 1480336
Requeued flit 1481160
Requeued flit 1481263
Requeued flit 1481601
Requeued flit 1481710
Requeued flit 1481993
Requeued flit 1481879
Requeued flit 1481549
Requeued flit 1482083
Requeued flit 1482485
Requeued flit 1481890
Requeued flit 1482296
Requeued flit 1481806
Requeued flit 1482309
Requeued flit 1483322
Requeued flit 1483033
Requeued flit 1482999
Requeued flit 1483267
Requeued flit 1483736
Requeued flit 1483170
Requeued flit 1484113
Requeued flit 1484051
Requeued flit 1483638
Requeued flit 1484803
Requeued flit 1484704
Requeued flit 1484896
Requeued flit 1485378
Requeued flit 1485442
Requeued flit 1485672
Requeued flit 1484953
Requeued flit 1485951
Requeued flit 1486064
Requeued flit 1485646
Requeued flit 1486422
Requeued flit 1486511
Requeued flit 1486117
Requeued flit 1486758
Requeued flit 1486926
Requeued flit 1486904
Requeued flit 1487419
Requeued flit 1487582
Requeued flit 1488017
Requeued flit 1488136
Requeued flit 1488557
Requeued flit 1488675
Requeued flit 1489046
Requeued flit 1488875
Requeued flit 1489277
Requeued flit 1489213
Requeued flit 1489231
Requeued flit 1489592
Requeued flit 1489506
Requeued flit 1489066
Requeued flit 1490099
Requeued flit 1490068
Requeued flit 1490229
Requeued flit 1489983
Requeued flit 1490260
Requeued flit 1490649
Requeued flit 1490743
Requeued flit 1490913
Requeued flit 1490927
Requeued flit 1491107
Requeued flit 1491223
Requeued flit 1491436
Requeued flit 1491559
Requeued flit 1491812
Requeued flit 1491510
Requeued flit 1491975
Requeued flit 1492097
Requeued flit 1492415
Requeued flit 1492269
Requeued flit 1492311
Requeued flit 1492270
Requeued flit 1492622
Requeued flit 1492316
Requeued flit 1492270
Requeued flit 1492843
Requeued flit 1492331
Requeued flit 1493108
Requeued flit 1493475
Requeued flit 1493584
Requeued flit 1493722
Requeued flit 1493967
Requeued flit 1493991
Requeued flit 1493983
Requeued flit 1494476
Requeued flit 1494596
Requeued flit 1494763
Requeued flit 1494798
Requeued flit 1495123
Requeued flit 1495434
Requeued flit 1495309
Requeued flit 1495279
Requeued flit 1495632
Requeued flit 1495664
Requeued flit 1495804
Requeued flit 1495986
Requeued flit 1496024
Requeued flit 1495991
Requeued flit 1496406
Requeued flit 1495863
Requeued flit 1496735
Requeued flit 1497192
Requeued flit 1496524
Requeued flit 1497191
Requeued flit 1497127
Requeued flit 1497151
Requeued flit 1497348
Requeued flit 1497529
Requeued flit 1497839
Requeued flit 1497827
Requeued flit 1497474
Requeued flit 1497492
Requeued flit 1497991
Requeued flit 1498700
Requeued flit 1498966
Requeued flit 1498826
Requeued flit 1499191
Requeued flit 1499285
Requeued flit 1499164
Requeued flit 1499326
Requeued flit 1499322
Requeued flit 1498913
Requeued flit 1499330
Requeued flit 1499423
Requeued flit 1499633
Requeued flit 1499317
Requeued flit 1499876
Requeued flit 1500448
Requeued flit 1500604
Requeued flit 1500920
Requeued flit 1500829
Requeued flit 1501082
Requeued flit 1500960
Requeued flit 1501332
Requeued flit 1500925
Requeued flit 1501007
Requeued flit 1501342
Requeued flit 1501569
Requeued flit 1501808
Requeued flit 1501401
Requeued flit 1501782
Requeued flit 1502387
Requeued flit 1502538
Requeued flit 1502496
Requeued flit 1502907
Requeued flit 1503270
Requeued flit 1502801
Requeued flit 1503246
Requeued flit 1503172
Requeued flit 1503842
Requeued flit 1503789
Requeued flit 1504097
Requeued flit 1504005
Requeued flit 1503679
Requeued flit 1504270
Requeued flit 1504324
Requeued flit 1503767
Requeued flit 1504530
Requeued flit 1504886
Requeued flit 1504976
Requeued flit 1504929
Requeued flit 1505111
Requeued flit 1505664
Requeued flit 1505348
Requeued flit 1505628
Requeued flit 1506125
Requeued flit 1506446
Requeued flit 1506360
Requeued flit 1507244
Requeued flit 1507425
Requeued flit 1507087
Requeued flit 1507129
Requeued flit 1507817
Requeued flit 1507833
Requeued flit 1508059
Requeued flit 1508085
Requeued flit 1508320
Requeued flit 1508546
Requeued flit 1508217
Requeued flit 1508376
Requeued flit 1508739
Requeued flit 1508800
Requeued flit 1508713
Requeued flit 1508178
Requeued flit 1509097
Requeued flit 1508420
Requeued flit 1509016
Requeued flit 1509145
Requeued flit 1509039
Requeued flit 1509857
Requeued flit 1509990
Requeued flit 1509795
Requeued flit 1510188
Requeued flit 1509908
Requeued flit 1510142
Requeued flit 1510595
Requeued flit 1510812
Requeued flit 1510574
Requeued flit 1511374
Requeued flit 1511199
Requeued flit 1511404
Requeued flit 1511674
Requeued flit 1511907
Requeued flit 1511442
Requeued flit 1511949
Requeued flit 1511915
Requeued flit 1512168
Requeued flit 1512426
Requeued flit 1512070
Requeued flit 1512260
Requeued flit 1512799
Requeued flit 1512754
Requeued flit 1512856
Requeued flit 1512742
Requeued flit 1513185
Requeued flit 1513259
Requeued flit 1513439
Requeued flit 1513657
Requeued flit 1513757
Requeued flit 1513848
Requeued flit 1514285
Requeued flit 1514454
Requeued flit 1513791
Requeued flit 1514757
Requeued flit 1514721
Requeued flit 1514530
Requeued flit 1515045
Requeued flit 1515014
Requeued flit 1514990
Requeued flit 1515081
Requeued flit 1515586
Requeued flit 1515830
Requeued flit 1516147
Requeued flit 1515933
Requeued flit 1516401
Requeued flit 1516121
Requeued flit 1516402
Requeued flit 1516525
Requeued flit 1517338
Requeued flit 1517094
Requeued flit 1517263
Requeued flit 1517731
Requeued flit 1517986
Requeued flit 1517971
Requeued flit 1518209
Requeued flit 1517948
Requeued flit 1518235
Requeued flit 1518515
Requeued flit 1518807
Requeued flit 1519000
Requeued flit 1518804
Requeued flit 1519159
Requeued flit 1519487
Requeued flit 1519699
Requeued flit 1519549
Requeued flit 1519793
Requeued flit 1519964
Requeued flit 1519870
Requeued flit 1519648
Requeued flit 1520378
Requeued flit 1519958
Requeued flit 1521601
Requeued flit 1521298
Requeued flit 1521714
Requeued flit 1521864
Requeued flit 1521941
Requeued flit 1521841
Requeued flit 1522098
Requeued flit 1522144
Requeued flit 1522055
Requeued flit 1522434
Requeued flit 1522412
Requeued flit 1523325
Requeued flit 1523321
Requeued flit 1523613
Requeued flit 1523957
Requeued flit 1523781
Requeued flit 1523308
Requeued flit 1524616
Requeued flit 1524360
Requeued flit 1525007
Requeued flit 1525019
Requeued flit 1525240
Requeued flit 1525252
Requeued flit 1525085
Requeued flit 1525523
Requeued flit 1524924
Requeued flit 1525615
Requeued flit 1525605
Requeued flit 1525475
Requeued flit 1525759
Requeued flit 1525567
Requeued flit 1525514
Requeued flit 1525688
Requeued flit 1526387
Requeued flit 1526550
Requeued flit 1526756
Requeued flit 1527695
Requeued flit 1527322
Requeued flit 1527743
Requeued flit 1527550
Requeued flit 1528737
Requeued flit 1528864
Requeued flit 1529387
Requeued flit 1529508
Requeued flit 1529179
Requeued flit 1529606
Requeued flit 1528778
Requeued flit 1529922
Requeued flit 1530286
Requeued flit 1529797
Requeued flit 1530601
Requeued flit 1530482
Requeued flit 1530725
Requeued flit 1531061
Requeued flit 1530941
Requeued flit 1530954
Requeued flit 1530956
Requeued flit 1531370
Requeued flit 1531335
Requeued flit 1531858
Requeued flit 1531488
Requeued flit 1531960
Requeued flit 1532101
Requeued flit 1532081
Requeued flit 1531985
Requeued flit 1532189
Requeued flit 1532007
Requeued flit 1532421
Requeued flit 1533042
Requeued flit 1532946
Requeued flit 1533227
Requeued flit 1533487
Requeued flit 1533664
Requeued flit 1533865
Requeued flit 1534011
Requeued flit 1534197
Requeued flit 1534125
Requeued flit 1533827
Requeued flit 1534641
Requeued flit 1535389
Requeued flit 1534965
Requeued flit 1535888
Requeued flit 1536317
Requeued flit 1536272
Requeued flit 1535968
Class 0:
Packet latency average = 24.1604
	minimum = 5
	maximum = 82
Network latency average = 24.1604
	minimum = 5
	maximum = 82
Slowest packet = 1306789
Flit latency average = 24.1651
	minimum = 5
	maximum = 82
Slowest flit = 1306789
Fragmentation average = 0
	minimum = 0
	maximum = 0
Injected packet rate average = 0.400423
	minimum = 0.391933 (at node 9)
	maximum = 0.406367 (at node 24)
Accepted packet rate average = 0.400426
	minimum = 0.392967 (at node 18)
	maximum = 0.407233 (at node 31)
Injected flit rate average = 0.400423
	minimum = 0.391933 (at node 9)
	maximum = 0.406367 (at node 24)
Accepted flit rate average= 0.400426
	minimum = 0.392967 (at node 18)
	maximum = 0.407233 (at node 31)
Injected packet length average = 1
Accepted packet length average = 1
Total in-flight flits = 659 (659 measured)
latency change    = 0.000191768
throughput change = 0.000108608
Draining all recorded packets ...
in flight = 659
in flight = 634
in flight = 607
Requeued flit 1536546
in flight = 579
in flight = 552
in flight = 529
Requeued flit 1536337
in flight = 500
in flight = 467
in flight = 438
in flight = 411
in flight = 389
in flight = 366
in flight = 346
in flight = 325
Requeued flit 1536141
in flight = 305
Requeued flit 1536517
in flight = 281
in flight = 261
in flight = 243
in flight = 220
in flight = 206
Requeued flit 1536697
in flight = 181
in flight = 165
in flight = 145
in flight = 129
in flight = 118
Requeued flit 1536804
in flight = 106
in flight = 98
in flight = 87
in flight = 71
in flight = 60
in flight = 55
Requeued flit 1537134
in flight = 46
in flight = 43
in flight = 39
in flight = 32
in flight = 25
in flight = 25
in flight = 24
in flight = 20
in flight = 18
in flight = 16
in flight = 14
in flight = 12
in flight = 10
in flight = 8
in flight = 7
in flight = 6
in flight = 4
in flight = 4
in flight = 2
in flight = 2
in flight = 2
Requeued flit 1537462
in flight = 2
in flight = 2
in flight = 2
in flight = 1
in flight = 1
in flight = 1
Requeued flit 1537116
in flight = 1
in flight = 1
in flight = 1
Requeued flit 1537951
in flight = 1
in flight = 1
in flight = 1
Draining remaining packets ...
Requeued flit 1538063
Requeued flit 1537828
Requeued flit 1537753
Requeued flit 1537713
Time taken is 60111 cycles
====== Overall Traffic Statistics ======
====== Traffic class 0 ======
Packet latency average = 24.1645 (1 samples)
	minimum = 5 (1 samples)
	maximum = 82 (1 samples)
Network latency average = 24.1645 (1 samples)
	minimum = 5 (1 samples)
	maximum = 82 (1 samples)
Flit latency average = 24.1687 (1 samples)
	minimum = 5 (1 samples)
	maximum = 82 (1 samples)
Fragmentation average = 0 (1 samples)
	minimum = 0 (1 samples)
	maximum = 0 (1 samples)
Injected packet rate average = 0.400423 (1 samples)
	minimum = 0.391933 (1 samples)
	maximum = 0.406367 (1 samples)
Accepted packet rate average = 0.400426 (1 samples)
	minimum = 0.392967 (1 samples)
	maximum = 0.407233 (1 samples)
Injected flit rate average = 0.400423 (1 samples)
	minimum = 0.391933 (1 samples)
	maximum = 0.406367 (1 samples)
Accepted flit rate average = 0.400426 (1 samples)
	minimum = 0.392967 (1 samples)
	maximum = 0.407233 (1 samples)
Injected packet size average = 1 (1 samples)
Accepted packet size average = 1 (1 samples)
Hops average = 6.25146 (1 samples)
Total run time 176.092
