BEGIN Configuration File: examples/ecc_mesh88_config_1_0.850_link_1
// $Id$

// Copyright (c) 2007-2015, Trustees of The Leland Stanford Junior University
// All rights reserved.
//
// Redistribution and use in source and binary forms, with or without
// modification, are permitted provided that the following conditions are met:
//
// Redistributions of source code must retain the above copyright notice, this
// list of conditions and the following disclaimer.
// Redistributions in binary form must reproduce the above copyright notice,
// this list of conditions and the following disclaimer in the documentation
// and/or other materials provided with the distribution.
//
// THIS SOFTWARE IS PROVIDED BY THE COPYRIGHT HOLDERS AND CONTRIBUTORS "AS IS"
// AND ANY EXPRESS OR IMPLIED WARRANTIES, INCLUDING, BUT NOT LIMITED TO, THE
// IMPLIED WARRANTIES OF MERCHANTABILITY AND FITNESS FOR A PARTICULAR PURPOSE
// ARE DISCLAIMED. IN NO EVENT SHALL THE COPYRIGHT OWNER OR CONTRIBUTORS BE
// LIABLE FOR ANY DIRECT, INDIRECT, INCIDENTAL, SPECIAL, EXEMPLARY, OR
// CONSEQUENTIAL DAMAGES (INCLUDING, BUT NOT LIMITED TO, PROCUREMENT OF
// SUBSTITUTE GOODS OR SERVICES; LOSS OF USE, DATA, OR PROFITS; OR BUSINESS
// INTERRUPTION) HOWEVER CAUSED AND ON ANY THEORY OF LIABILITY, WHETHER IN
// CONTRACT, STRICT LIABILITY, OR TORT (INCLUDING NEGLIGENCE OR OTHERWISE)
// ARISING IN ANY WAY OUT OF THE USE OF THIS SOFTWARE, EVEN IF ADVISED OF THE
// POSSIBILITY OF SUCH DAMAGE.

// Dragonfly
//




vc_buf_size = 256;


wait_for_tail_credit = 0;

//
// Router architecture
//
vc_allocator = separable_input_first; 
sw_allocator = separable_input_first;
alloc_iters  = 1;

credit_delay   = 2;
routing_delay  = 0;
vc_alloc_delay = 1;
sw_alloc_delay = 1;
st_final_delay = 1;

input_speedup     = 1;
output_speedup    = 1;
internal_speedup  = 2.0;


warmup_periods = 3;
sim_count          = 1;

sample_period  = 10000;  


routing_function = dor;
num_vcs     = 2;

priority = none;
traffic       = uniform; 

injection_rate = 0.85;
packet_size = 1;
injection_rate_uses_flits=1;

topology = mesh;

k  = 8;
n  = 2;

fer = 1;
ecc = link;
correctable = 1;

watch_out=-;
watch_file = watch.txt;

ecc = link;

stats_out = examples/ecc_mesh88_config_1_0.850_link_1.m;

END Configuration File: examples/ecc_mesh88_config_1_0.850_link_1
Requeued flit 20
Requeued flit 51
Requeued flit 89
Requeued flit 132
Requeued flit 166
Requeued flit 86
Requeued flit 205
Requeued flit 297
Requeued flit 199
Requeued flit 314
Requeued flit 328
Requeued flit 117
Requeued flit 78
Requeued flit 135
Requeued flit 361
Requeued flit 55
Requeued flit 464
Requeued flit 256
Requeued flit 98
Requeued flit 8
Requeued flit 507
Requeued flit 21
Requeued flit 299
Requeued flit 596
Requeued flit 273
Requeued flit 217
Requeued flit 617
Requeued flit 121
Requeued flit 37
Requeued flit 417
Requeued flit 218
Requeued flit 64
Requeued flit 622
Requeued flit 363
Requeued flit 485
Requeued flit 106
Requeued flit 500
Requeued flit 691
Requeued flit 544
Requeued flit 156
Requeued flit 400
Requeued flit 278
Requeued flit 304
Requeued flit 369
Requeued flit 886
Requeued flit 66
Requeued flit 949
Requeued flit 476
Requeued flit 965
Requeued flit 988
Requeued flit 386
Requeued flit 303
Requeued flit 537
Requeued flit 104
Requeued flit 136
Requeued flit 87
Requeued flit 543
Requeued flit 706
Requeued flit 871
Requeued flit 1100
Requeued flit 217
Requeued flit 61
Requeued flit 413
Requeued flit 575
Requeued flit 1136
Requeued flit 969
Requeued flit 643
Requeued flit 1171
Requeued flit 563
Requeued flit 566
Requeued flit 198
Requeued flit 228
Requeued flit 1065
Requeued flit 953
Requeued flit 179
Requeued flit 968
Requeued flit 1205
Requeued flit 327
Requeued flit 655
Requeued flit 1165
Requeued flit 461
Requeued flit 312
Requeued flit 224
Requeued flit 128
Requeued flit 80
Requeued flit 1023
Requeued flit 1151
Requeued flit 992
Requeued flit 827
Requeued flit 0
Requeued flit 193
Requeued flit 259
Requeued flit 1197
Requeued flit 625
Requeued flit 679
Requeued flit 541
Requeued flit 806
Requeued flit 926
Requeued flit 1124
Requeued flit 961
Requeued flit 337
Requeued flit 208
Requeued flit 1063
Requeued flit 774
Requeued flit 105
Requeued flit 491
Requeued flit 1028
Requeued flit 440
Requeued flit 1204
Requeued flit 1032
Requeued flit 653
Requeued flit 1126
Requeued flit 951
Requeued flit 661
Requeued flit 280
Requeued flit 268
Requeued flit 949
Requeued flit 1521
Requeued flit 155
Requeued flit 146
Requeued flit 1594
Requeued flit 867
Requeued flit 1052
Requeued flit 1231
Requeued flit 325
Requeued flit 242
Requeued flit 303
Requeued flit 1536
Requeued flit 1439
Requeued flit 742
Requeued flit 751
Requeued flit 1721
Requeued flit 899
Requeued flit 1642
Requeued flit 1260
Requeued flit 367
Requeued flit 1170
Requeued flit 1452
Requeued flit 1407
Requeued flit 1411
Requeued flit 255
Requeued flit 188
Requeued flit 335
Requeued flit 643
Requeued flit 997
Requeued flit 1900
Requeued flit 1405
Requeued flit 1974
Requeued flit 2000
Requeued flit 504
Requeued flit 2016
Requeued flit 469
Requeued flit 24
Requeued flit 802
Requeued flit 1818
Requeued flit 1592
Requeued flit 186
Requeued flit 2098
Requeued flit 892
Requeued flit 1180
Requeued flit 1957
Requeued flit 1386
Requeued flit 1246
Requeued flit 1813
Requeued flit 342
Requeued flit 1704
Requeued flit 1354
Requeued flit 735
Requeued flit 179
Requeued flit 1054
Requeued flit 1482
Requeued flit 381
Requeued flit 1940
Requeued flit 1449
Requeued flit 1467
Requeued flit 1474
Requeued flit 470
Requeued flit 702
Requeued flit 1335
Requeued flit 2117
Requeued flit 1797
Requeued flit 1069
Requeued flit 748
Requeued flit 658
Requeued flit 104
Requeued flit 858
Requeued flit 1930
Requeued flit 2206
Requeued flit 2075
Requeued flit 1305
Requeued flit 794
Requeued flit 2032
Requeued flit 1292
Requeued flit 1959
Requeued flit 523
Requeued flit 2238
Requeued flit 273
Requeued flit 652
Requeued flit 1933
Requeued flit 1781
Requeued flit 1508
Requeued flit 1205
Requeued flit 925
Requeued flit 996
Requeued flit 1173
Requeued flit 740
Requeued flit 2015
Requeued flit 2446
Requeued flit 1218
Requeued flit 2521
Requeued flit 498
Requeued flit 2197
Requeued flit 2476
Requeued flit 933
Requeued flit 797
Requeued flit 987
Requeued flit 2313
Requeued flit 1119
Requeued flit 2006
Requeued flit 2515
Requeued flit 774
Requeued flit 2633
Requeued flit 2093
Requeued flit 877
Requeued flit 2593
Requeued flit 1266
Requeued flit 1628
Requeued flit 839
Requeued flit 1911
Requeued flit 1808
Requeued flit 2187
Requeued flit 1330
Requeued flit 2541
Requeued flit 783
Requeued flit 2086
Requeued flit 1332
Requeued flit 506
Requeued flit 2163
Requeued flit 1805
Requeued flit 2734
Requeued flit 486
Requeued flit 1999
Requeued flit 514
Requeued flit 2228
Requeued flit 864
Requeued flit 1551
Requeued flit 2320
Requeued flit 2488
Requeued flit 2109
Requeued flit 2818
Requeued flit 1168
Requeued flit 2669
Requeued flit 925
Requeued flit 1795
Requeued flit 1433
Requeued flit 382
Requeued flit 2455
Requeued flit 1127
Requeued flit 911
Requeued flit 2693
Requeued flit 1666
Requeued flit 1583
Requeued flit 2600
Requeued flit 1516
Requeued flit 2955
Requeued flit 2354
Requeued flit 2700
Requeued flit 1339
Requeued flit 504
Requeued flit 1465
Requeued flit 1663
Requeued flit 1247
Requeued flit 874
Requeued flit 2486
Requeued flit 1696
Requeued flit 3003
Requeued flit 726
Requeued flit 1524
Requeued flit 1045
Requeued flit 1484
Requeued flit 3187
Requeued flit 1151
Requeued flit 2762
Requeued flit 2489
Requeued flit 904
Requeued flit 1099
Requeued flit 2302
Requeued flit 2645
Requeued flit 2538
Requeued flit 1844
Requeued flit 1522
Requeued flit 385
Requeued flit 1373
Requeued flit 2314
Requeued flit 2715
Requeued flit 2918
Requeued flit 2148
Requeued flit 3359
Requeued flit 1725
Requeued flit 1194
Requeued flit 921
Requeued flit 2806
Requeued flit 2975
Requeued flit 819
Requeued flit 953
Requeued flit 2560
Requeued flit 1544
Requeued flit 2649
Requeued flit 1722
Requeued flit 3480
Requeued flit 1621
Requeued flit 834
Requeued flit 1357
Requeued flit 1812
Requeued flit 2685
Requeued flit 2368
Requeued flit 2784
Requeued flit 2614
Requeued flit 2370
Requeued flit 3096
Requeued flit 1009
Requeued flit 3061
Requeued flit 832
Requeued flit 2364
Requeued flit 2967
Requeued flit 3370
Requeued flit 3534
Requeued flit 1652
Requeued flit 894
Requeued flit 452
Requeued flit 2014
Requeued flit 3753
Requeued flit 2938
Requeued flit 2665
Requeued flit 1236
Requeued flit 2338
Requeued flit 2793
Requeued flit 2516
Requeued flit 3261
Requeued flit 1302
Requeued flit 2160
Requeued flit 1810
Requeued flit 1262
Requeued flit 1348
Requeued flit 1616
Requeued flit 3757
Requeued flit 3262
Requeued flit 1569
Requeued flit 1489
Requeued flit 2357
Requeued flit 3933
Requeued flit 2671
Requeued flit 3938
Requeued flit 1068
Requeued flit 2329
Requeued flit 1458
Requeued flit 3322
Requeued flit 3973
Requeued flit 2061
Requeued flit 1501
Requeued flit 1570
Requeued flit 2824
Requeued flit 3994
Requeued flit 2697
Requeued flit 3364
Requeued flit 3747
Requeued flit 4018
Requeued flit 2994
Requeued flit 1130
Requeued flit 2411
Requeued flit 1798
Requeued flit 2001
Requeued flit 1617
Requeued flit 2117
Requeued flit 1336
Requeued flit 770
Requeued flit 4092
Requeued flit 1350
Requeued flit 2343
Requeued flit 3745
Requeued flit 1975
Requeued flit 2865
Requeued flit 2543
Requeued flit 3753
Requeued flit 2609
Requeued flit 3775
Requeued flit 2980
Requeued flit 2952
Requeued flit 2307
Requeued flit 2255
Requeued flit 4052
Requeued flit 1486
Requeued flit 2325
Requeued flit 2493
Requeued flit 2032
Requeued flit 3275
Requeued flit 3455
Requeued flit 3298
Requeued flit 3845
Requeued flit 4285
Requeued flit 1278
Requeued flit 2063
Requeued flit 3156
Requeued flit 1417
Requeued flit 3938
Requeued flit 2686
Requeued flit 3080
Requeued flit 2676
Requeued flit 3333
Requeued flit 4377
Requeued flit 1705
Requeued flit 2879
Requeued flit 3146
Requeued flit 2004
Requeued flit 1412
Requeued flit 4081
Requeued flit 3284
Requeued flit 3492
Requeued flit 4061
Requeued flit 2788
Requeued flit 4088
Requeued flit 3017
Requeued flit 2484
Requeued flit 2370
Requeued flit 2156
Requeued flit 3915
Requeued flit 1468
Requeued flit 2046
Requeued flit 3551
Requeued flit 2964
Requeued flit 2617
Requeued flit 4528
Requeued flit 3453
Requeued flit 1933
Requeued flit 1290
Requeued flit 2441
Requeued flit 2249
Requeued flit 1543
Requeued flit 1686
Requeued flit 4634
Requeued flit 788
Requeued flit 3289
Requeued flit 4097
Requeued flit 4701
Requeued flit 4386
Requeued flit 4554
Requeued flit 4670
Requeued flit 2387
Requeued flit 1922
Requeued flit 2530
Requeued flit 4694
Requeued flit 2856
Requeued flit 2812
Requeued flit 3924
Requeued flit 3673
Requeued flit 1119
Requeued flit 2002
Requeued flit 3669
Requeued flit 4494
Requeued flit 4161
Requeued flit 3009
Requeued flit 4142
Requeued flit 4307
Requeued flit 4864
Requeued flit 4489
Requeued flit 3580
Requeued flit 4773
Requeued flit 928
Requeued flit 4199
Requeued flit 3879
Requeued flit 1620
Requeued flit 4557
Requeued flit 2788
Requeued flit 5010
Requeued flit 2357
Requeued flit 1291
Requeued flit 3301
Requeued flit 2582
Requeued flit 5037
Requeued flit 4764
Requeued flit 2778
Requeued flit 2028
Requeued flit 1636
Requeued flit 4210
Requeued flit 3881
Requeued flit 2482
Requeued flit 3094
Requeued flit 3816
Requeued flit 4468
Requeued flit 3602
Requeued flit 4532
Requeued flit 1924
Requeued flit 5096
Requeued flit 3803
Requeued flit 1645
Requeued flit 2744
Requeued flit 2991
Requeued flit 2831
Requeued flit 3584
Requeued flit 2371
Requeued flit 4101
Requeued flit 1814
Requeued flit 1768
Requeued flit 4546
Requeued flit 3147
Requeued flit 4281
Requeued flit 2404
Requeued flit 3942
Requeued flit 2825
Requeued flit 2978
Requeued flit 4024
Requeued flit 1063
Requeued flit 5398
Requeued flit 2190
Requeued flit 5356
Requeued flit 5306
Requeued flit 4666
Requeued flit 2445
Requeued flit 2476
Requeued flit 1713
Requeued flit 2568
Requeued flit 5336
Requeued flit 3478
Requeued flit 2739
Requeued flit 3364
Requeued flit 3576
Requeued flit 2874
Requeued flit 2373
Requeued flit 1802
Requeued flit 1917
Requeued flit 4849
Requeued flit 4918
Requeued flit 2986
Requeued flit 3388
Requeued flit 3781
Requeued flit 5617
Requeued flit 2111
Requeued flit 4304
Requeued flit 2079
Requeued flit 4543
Requeued flit 4301
Requeued flit 2352
Requeued flit 4190
Requeued flit 3311
Requeued flit 5295
Requeued flit 5568
Requeued flit 5744
Requeued flit 3422
Requeued flit 1501
Requeued flit 4625
Requeued flit 4520
Requeued flit 1439
Requeued flit 4034
Requeued flit 1296
Requeued flit 2462
Requeued flit 4170
Requeued flit 5855
Requeued flit 2308
Requeued flit 2351
Requeued flit 4238
Requeued flit 4098
Requeued flit 3329
Requeued flit 3779
Requeued flit 2563
Requeued flit 3423
Requeued flit 3296
Requeued flit 4149
Requeued flit 3941
Requeued flit 2582
Requeued flit 4116
Requeued flit 5960
Requeued flit 2595
Requeued flit 5967
Requeued flit 3294
Requeued flit 3192
Requeued flit 2280
Requeued flit 3102
Requeued flit 3386
Requeued flit 2304
Requeued flit 2290
Requeued flit 6010
Requeued flit 4665
Requeued flit 2174
Requeued flit 921
Requeued flit 1492
Requeued flit 5997
Requeued flit 957
Requeued flit 3194
Requeued flit 2759
Requeued flit 4365
Requeued flit 4467
Requeued flit 4260
Requeued flit 3702
Requeued flit 1961
Requeued flit 4079
Requeued flit 2131
Requeued flit 4145
Requeued flit 4856
Requeued flit 5172
Requeued flit 2748
Requeued flit 4607
Requeued flit 4574
Requeued flit 5098
Requeued flit 3263
Requeued flit 5062
Requeued flit 5887
Requeued flit 5759
Requeued flit 2142
Requeued flit 3286
Requeued flit 2202
Requeued flit 3962
Requeued flit 4090
Requeued flit 3227
Requeued flit 1057
Requeued flit 3234
Requeued flit 5365
Requeued flit 3678
Requeued flit 2423
Requeued flit 1501
Requeued flit 2268
Requeued flit 2760
Requeued flit 5608
Requeued flit 2370
Requeued flit 2976
Requeued flit 4312
Requeued flit 6398
Requeued flit 3801
Requeued flit 5050
Requeued flit 6313
Requeued flit 3718
Requeued flit 5834
Requeued flit 6443
Requeued flit 6334
Requeued flit 5956
Requeued flit 5151
Requeued flit 5646
Requeued flit 4087
Requeued flit 6558
Requeued flit 4766
Requeued flit 3535
Requeued flit 1436
Requeued flit 1954
Requeued flit 6491
Requeued flit 6545
Requeued flit 3415
Requeued flit 1937
Requeued flit 4573
Requeued flit 2629
Requeued flit 3412
Requeued flit 6666
Requeued flit 5264
Requeued flit 5297
Requeued flit 2202
Requeued flit 4445
Requeued flit 3336
Requeued flit 4323
Requeued flit 5438
Requeued flit 6608
Requeued flit 1602
Requeued flit 4288
Requeued flit 6736
Requeued flit 6482
Requeued flit 1671
Requeued flit 6549
Requeued flit 2641
Requeued flit 2322
Requeued flit 5986
Requeued flit 2837
Requeued flit 3180
Requeued flit 5463
Requeued flit 3886
Requeued flit 3519
Requeued flit 6228
Requeued flit 6423
Requeued flit 3242
Requeued flit 2377
Requeued flit 3504
Requeued flit 4960
Requeued flit 5093
Requeued flit 4984
Requeued flit 5413
Requeued flit 3213
Requeued flit 3893
Requeued flit 1569
Requeued flit 2578
Requeued flit 6936
Requeued flit 5429
Requeued flit 3301
Requeued flit 5197
Requeued flit 5748
Requeued flit 3056
Requeued flit 2876
Requeued flit 3024
Requeued flit 6605
Requeued flit 4761
Requeued flit 2813
Requeued flit 2004
Requeued flit 4862
Requeued flit 4362
Requeued flit 6567
Requeued flit 7008
Requeued flit 6356
Requeued flit 2781
Requeued flit 5780
Requeued flit 4974
Requeued flit 4125
Requeued flit 6411
Requeued flit 3911
Requeued flit 7176
Requeued flit 6052
Requeued flit 5682
Requeued flit 7213
Requeued flit 6681
Requeued flit 4898
Requeued flit 3147
Requeued flit 5866
Requeued flit 4387
Requeued flit 7196
Requeued flit 4428
Requeued flit 6773
Requeued flit 5311
Requeued flit 3164
Requeued flit 5388
Requeued flit 3571
Requeued flit 4848
Requeued flit 5342
Requeued flit 3230
Requeued flit 2774
Requeued flit 5390
Requeued flit 5993
Requeued flit 2899
Requeued flit 4299
Requeued flit 5069
Requeued flit 7335
Requeued flit 4777
Requeued flit 3178
Requeued flit 5669
Requeued flit 3988
Requeued flit 2927
Requeued flit 5647
Requeued flit 2111
Requeued flit 4893
Requeued flit 1827
Requeued flit 2240
Requeued flit 5896
Requeued flit 6562
Requeued flit 3207
Requeued flit 5915
Requeued flit 5809
Requeued flit 6051
Requeued flit 2593
Requeued flit 5511
Requeued flit 6635
Requeued flit 6099
Requeued flit 5666
Requeued flit 4549
Requeued flit 4576
Requeued flit 5255
Requeued flit 7505
Requeued flit 4295
Requeued flit 7507
Requeued flit 7404
Requeued flit 5270
Requeued flit 4105
Requeued flit 7636
Requeued flit 5573
Requeued flit 4384
Requeued flit 6121
Requeued flit 2202
Requeued flit 7591
Requeued flit 5592
Requeued flit 3846
Requeued flit 5465
Requeued flit 2973
Requeued flit 7660
Requeued flit 5605
Requeued flit 5285
Requeued flit 7472
Requeued flit 2345
Requeued flit 7314
Requeued flit 7645
Requeued flit 4235
Requeued flit 2967
Requeued flit 6572
Requeued flit 1621
Requeued flit 2887
Requeued flit 5639
Requeued flit 1224
Requeued flit 3408
Requeued flit 7279
Requeued flit 3098
Requeued flit 5810
Requeued flit 3819
Requeued flit 5544
Requeued flit 6458
Requeued flit 4379
Requeued flit 6951
Requeued flit 4020
Requeued flit 3745
Requeued flit 4358
Requeued flit 5751
Requeued flit 5687
Requeued flit 2322
Requeued flit 5566
Requeued flit 3923
Requeued flit 5991
Requeued flit 4055
Requeued flit 4712
Requeued flit 8031
Requeued flit 7932
Requeued flit 5053
Requeued flit 4182
Requeued flit 7828
Requeued flit 7991
Requeued flit 3395
Requeued flit 2582
Requeued flit 6056
Requeued flit 3367
Requeued flit 5290
Requeued flit 6708
Requeued flit 1272
Requeued flit 2224
Requeued flit 5219
Requeued flit 5103
Requeued flit 4828
Requeued flit 5912
Requeued flit 8141
Requeued flit 4623
Requeued flit 8109
Requeued flit 6873
Requeued flit 3744
Requeued flit 6126
Requeued flit 7501
Requeued flit 3279
Requeued flit 4806
Requeued flit 5941
Requeued flit 5895
Requeued flit 5796
Requeued flit 6728
Requeued flit 6349
Requeued flit 7169
Requeued flit 2993
Requeued flit 1731
Requeued flit 2911
Requeued flit 6440
Requeued flit 7965
Requeued flit 7933
Requeued flit 5753
Requeued flit 3790
Requeued flit 8244
Requeued flit 5070
Requeued flit 3617
Requeued flit 4888
Requeued flit 5609
Requeued flit 7251
Requeued flit 6439
Requeued flit 8437
Requeued flit 6070
Requeued flit 4163
Requeued flit 3479
Requeued flit 3830
Requeued flit 4748
Requeued flit 6545
Requeued flit 4011
Requeued flit 4937
Requeued flit 3202
Requeued flit 2845
Requeued flit 3272
Requeued flit 8484
Requeued flit 8556
Requeued flit 6071
Requeued flit 7216
Requeued flit 5728
Requeued flit 4431
Requeued flit 7330
Requeued flit 8563
Requeued flit 4952
Requeued flit 5868
Requeued flit 6628
Requeued flit 8591
Requeued flit 2167
Requeued flit 2752
Requeued flit 5253
Requeued flit 2490
Requeued flit 4434
Requeued flit 3789
Requeued flit 7763
Requeued flit 4283
Requeued flit 4897
Requeued flit 6823
Requeued flit 6659
Requeued flit 7856
Requeued flit 3678
Requeued flit 5248
Requeued flit 6783
Requeued flit 3383
Requeued flit 6315
Requeued flit 3687
Requeued flit 5292
Requeued flit 3231
Requeued flit 7960
Requeued flit 3860
Requeued flit 8809
Requeued flit 3882
Requeued flit 3091
Requeued flit 6551
Requeued flit 8837
Requeued flit 4065
Requeued flit 4774
Requeued flit 3382
Requeued flit 4816
Requeued flit 6276
Requeued flit 3147
Requeued flit 7331
Requeued flit 8406
Requeued flit 8734
Requeued flit 4120
Requeued flit 8849
Requeued flit 8876
Requeued flit 3028
Requeued flit 5047
Requeued flit 3439
Requeued flit 8980
Requeued flit 7640
Requeued flit 3842
Requeued flit 8204
Requeued flit 8592
Requeued flit 4467
Requeued flit 3132
Requeued flit 9021
Requeued flit 8039
Requeued flit 5450
Requeued flit 9099
Requeued flit 6931
Requeued flit 8326
Requeued flit 8136
Requeued flit 8954
Requeued flit 5266
Requeued flit 7943
Requeued flit 7086
Requeued flit 4048
Requeued flit 4933
Requeued flit 4334
Requeued flit 8741
Requeued flit 4686
Requeued flit 9193
Requeued flit 2331
Requeued flit 9040
Requeued flit 5009
Requeued flit 6884
Requeued flit 6609
Requeued flit 5280
Requeued flit 8205
Requeued flit 6387
Requeued flit 2437
Requeued flit 4908
Requeued flit 6277
Requeued flit 7463
Requeued flit 8027
Requeued flit 9215
Requeued flit 4772
Requeued flit 4836
Requeued flit 4300
Requeued flit 4546
Requeued flit 6550
Requeued flit 3998
Requeued flit 7080
Requeued flit 6296
Requeued flit 9395
Requeued flit 8473
Requeued flit 2138
Requeued flit 4426
Requeued flit 3964
Requeued flit 4403
Requeued flit 3083
Requeued flit 3404
Requeued flit 8240
Requeued flit 3855
Requeued flit 3368
Requeued flit 3867
Requeued flit 4551
Requeued flit 7975
Requeued flit 8516
Requeued flit 8009
Requeued flit 5609
Requeued flit 5809
Requeued flit 5632
Requeued flit 9601
Requeued flit 7228
Requeued flit 7780
Requeued flit 5597
Requeued flit 4547
Requeued flit 5233
Requeued flit 3586
Requeued flit 2684
Requeued flit 9236
Requeued flit 7179
Requeued flit 5660
Requeued flit 5412
Requeued flit 1891
Requeued flit 9003
Requeued flit 7401
Requeued flit 3611
Requeued flit 7300
Requeued flit 7434
Requeued flit 3382
Requeued flit 9935
Requeued flit 9836
Requeued flit 5914
Requeued flit 3649
Requeued flit 7184
Requeued flit 7129
Requeued flit 3831
Requeued flit 3078
Requeued flit 5840
Requeued flit 7261
Requeued flit 4501
Requeued flit 9080
Requeued flit 6165
Requeued flit 9961
Requeued flit 4430
Requeued flit 7170
Requeued flit 5818
Requeued flit 3418
Requeued flit 10070
Requeued flit 7952
Requeued flit 4127
Requeued flit 5911
Requeued flit 5808
Requeued flit 3457
Requeued flit 5979
Requeued flit 8123
Requeued flit 6004
Requeued flit 10091
Requeued flit 4608
Requeued flit 10153
Requeued flit 7829
Requeued flit 7705
Requeued flit 7079
Requeued flit 9189
Requeued flit 6120
Requeued flit 7739
Requeued flit 7862
Requeued flit 10195
Requeued flit 10286
Requeued flit 3855
Requeued flit 5107
Requeued flit 5580
Requeued flit 10320
Requeued flit 7926
Requeued flit 4921
Requeued flit 9986
Requeued flit 10217
Requeued flit 4679
Requeued flit 3217
Requeued flit 8545
Requeued flit 4510
Requeued flit 4824
Requeued flit 5708
Requeued flit 7614
Requeued flit 3992
Requeued flit 3409
Requeued flit 8244
Requeued flit 6131
Requeued flit 7603
Requeued flit 5212
Requeued flit 3565
Requeued flit 3797
Requeued flit 5636
Requeued flit 3319
Requeued flit 9795
Requeued flit 5601
Requeued flit 7334
Requeued flit 7728
Requeued flit 6890
Requeued flit 5670
Requeued flit 8328
Requeued flit 4793
Requeued flit 3983
Requeued flit 3519
Requeued flit 5029
Requeued flit 4562
Requeued flit 6847
Requeued flit 8446
Requeued flit 10783
Requeued flit 9017
Requeued flit 4993
Requeued flit 10718
Requeued flit 5308
Requeued flit 10731
Requeued flit 10792
Requeued flit 8821
Requeued flit 9652
Requeued flit 4901
Requeued flit 5735
Requeued flit 10924
Requeued flit 6331
Requeued flit 9267
Requeued flit 7429
Requeued flit 10137
Requeued flit 7806
Requeued flit 10087
Requeued flit 6023
Requeued flit 9447
Requeued flit 4434
Requeued flit 2251
Requeued flit 8632
Requeued flit 8552
Requeued flit 9645
Requeued flit 7870
Requeued flit 8189
Requeued flit 8517
Requeued flit 5869
Requeued flit 4986
Requeued flit 4575
Requeued flit 7728
Requeued flit 4456
Requeued flit 10808
Requeued flit 8814
Requeued flit 7973
Requeued flit 4802
Requeued flit 9314
Requeued flit 11047
Requeued flit 10724
Requeued flit 5335
Requeued flit 7531
Requeued flit 8937
Requeued flit 8792
Requeued flit 10630
Requeued flit 6668
Requeued flit 5988
Requeued flit 4356
Requeued flit 8994
Requeued flit 8313
Requeued flit 4031
Requeued flit 5805
Requeued flit 9299
Requeued flit 8822
Requeued flit 5195
Requeued flit 9163
Requeued flit 9350
Requeued flit 11240
Requeued flit 7564
Requeued flit 8595
Requeued flit 6478
Requeued flit 7108
Requeued flit 3580
Requeued flit 4303
Requeued flit 4078
Requeued flit 8431
Requeued flit 5940
Requeued flit 5246
Requeued flit 7974
Requeued flit 3874
Requeued flit 6805
Requeued flit 8692
Requeued flit 5443
Requeued flit 6178
Requeued flit 9095
Requeued flit 9538
Requeued flit 8888
Requeued flit 6030
Requeued flit 11067
Requeued flit 7259
Requeued flit 8926
Requeued flit 6222
Requeued flit 8614
Requeued flit 6144
Requeued flit 5371
Requeued flit 11565
Requeued flit 5622
Requeued flit 3523
Requeued flit 11532
Requeued flit 4657
Requeued flit 2642
Requeued flit 10479
Requeued flit 4013
Requeued flit 7841
Requeued flit 8709
Requeued flit 10675
Requeued flit 10094
Requeued flit 10642
Requeued flit 11621
Requeued flit 9603
Requeued flit 7309
Requeued flit 4665
Requeued flit 8794
Requeued flit 7825
Requeued flit 5532
Requeued flit 11245
Requeued flit 5697
Requeued flit 6162
Requeued flit 3983
Requeued flit 8510
Requeued flit 11749
Requeued flit 5900
Requeued flit 11484
Requeued flit 6689
Requeued flit 11683
Requeued flit 8437
Requeued flit 8466
Requeued flit 5341
Requeued flit 9305
Requeued flit 9579
Requeued flit 8118
Requeued flit 4216
Requeued flit 8018
Requeued flit 6153
Requeued flit 10613
Requeued flit 5050
Requeued flit 4670
Requeued flit 11833
Requeued flit 7325
Requeued flit 4636
Requeued flit 9200
Requeued flit 10756
Requeued flit 3998
Requeued flit 4607
Requeued flit 11278
Requeued flit 10136
Requeued flit 11695
Requeued flit 10562
Requeued flit 11935
Requeued flit 9685
Requeued flit 3937
Requeued flit 10363
Requeued flit 10455
Requeued flit 5786
Requeued flit 6303
Requeued flit 9726
Requeued flit 8743
Requeued flit 8797
Requeued flit 8534
Requeued flit 12058
Requeued flit 4339
Requeued flit 4140
Requeued flit 9704
Requeued flit 5046
Requeued flit 4032
Requeued flit 12116
Requeued flit 4111
Requeued flit 10511
Requeued flit 5077
Requeued flit 10967
Requeued flit 12055
Requeued flit 4413
Requeued flit 3837
Requeued flit 8805
Requeued flit 5524
Requeued flit 5361
Requeued flit 3585
Requeued flit 8956
Requeued flit 12155
Requeued flit 9514
Requeued flit 11024
Requeued flit 12165
Requeued flit 11845
Requeued flit 7814
Requeued flit 3500
Requeued flit 9258
Requeued flit 7226
Requeued flit 9132
Requeued flit 8235
Requeued flit 4889
Requeued flit 8399
Requeued flit 6461
Requeued flit 9120
Requeued flit 11844
Requeued flit 4248
Requeued flit 7818
Requeued flit 3706
Requeued flit 6166
Requeued flit 12363
Requeued flit 6905
Requeued flit 8060
Requeued flit 11452
Requeued flit 10461
Requeued flit 9344
Requeued flit 7456
Requeued flit 4682
Requeued flit 5027
Requeued flit 6181
Requeued flit 12301
Requeued flit 12198
Requeued flit 9223
Requeued flit 9664
Requeued flit 5801
Requeued flit 7689
Requeued flit 3753
Requeued flit 5133
Requeued flit 9438
Requeued flit 7219
Requeued flit 10258
Requeued flit 4507
Requeued flit 8663
Requeued flit 10025
Requeued flit 4838
Requeued flit 4786
Requeued flit 12276
Requeued flit 7804
Requeued flit 3694
Requeued flit 7792
Requeued flit 11715
Requeued flit 12097
Requeued flit 6902
Requeued flit 6509
Requeued flit 7237
Requeued flit 10510
Requeued flit 5215
Requeued flit 10276
Requeued flit 3500
Requeued flit 9972
Requeued flit 9668
Requeued flit 12434
Requeued flit 7002
Requeued flit 6718
Requeued flit 12792
Requeued flit 11482
Requeued flit 9826
Requeued flit 10109
Requeued flit 11347
Requeued flit 7909
Requeued flit 9808
Requeued flit 6985
Requeued flit 6238
Requeued flit 6666
Requeued flit 7888
Requeued flit 9070
Requeued flit 8166
Requeued flit 6791
Requeued flit 5563
Requeued flit 10130
Requeued flit 7803
Requeued flit 5471
Requeued flit 12878
Requeued flit 9976
Requeued flit 7597
Requeued flit 12426
Requeued flit 7223
Requeued flit 5081
Requeued flit 4170
Requeued flit 4541
Requeued flit 10881
Requeued flit 11646
Requeued flit 4516
Requeued flit 8252
Requeued flit 5578
Requeued flit 10593
Requeued flit 7707
Requeued flit 6266
Requeued flit 6961
Requeued flit 9526
Requeued flit 3898
Requeued flit 9566
Requeued flit 13139
Requeued flit 10503
Requeued flit 9212
Requeued flit 13018
Requeued flit 10000
Requeued flit 4786
Requeued flit 12599
Requeued flit 4933
Requeued flit 6346
Requeued flit 11803
Requeued flit 11154
Requeued flit 9761
Requeued flit 12818
Requeued flit 8821
Requeued flit 13298
Requeued flit 6026
Requeued flit 5704
Requeued flit 12970
Requeued flit 9251
Requeued flit 4622
Requeued flit 6953
Requeued flit 6187
Requeued flit 10568
Requeued flit 12966
Requeued flit 10762
Requeued flit 11352
Requeued flit 11208
Requeued flit 10517
Requeued flit 10155
Requeued flit 7710
Requeued flit 7413
Requeued flit 10927
Requeued flit 11983
Requeued flit 13453
Requeued flit 7934
Requeued flit 12121
Requeued flit 8668
Requeued flit 9580
Requeued flit 9274
Requeued flit 6137
Requeued flit 13464
Requeued flit 12268
Requeued flit 7487
Requeued flit 10408
Requeued flit 7795
Requeued flit 13499
Requeued flit 11216
Requeued flit 9927
Requeued flit 3993
Requeued flit 10936
Requeued flit 6410
Requeued flit 6375
Requeued flit 10036
Requeued flit 9440
Requeued flit 12387
Requeued flit 8444
Requeued flit 11486
Requeued flit 9715
Requeued flit 11781
Requeued flit 10533
Requeued flit 5134
Requeued flit 10132
Requeued flit 10671
Requeued flit 13771
Requeued flit 12469
Requeued flit 5368
Requeued flit 8079
Requeued flit 13791
Requeued flit 13411
Requeued flit 6864
Requeued flit 8037
Requeued flit 4909
Requeued flit 9789
Requeued flit 13052
Requeued flit 11250
Requeued flit 12245
Requeued flit 10788
Requeued flit 10222
Requeued flit 7857
Requeued flit 6327
Requeued flit 7979
Requeued flit 3873
Requeued flit 12524
Requeued flit 7943
Requeued flit 11708
Requeued flit 6298
Requeued flit 13866
Requeued flit 13925
Requeued flit 6889
Requeued flit 6119
Requeued flit 11765
Requeued flit 10791
Requeued flit 7013
Requeued flit 9429
Requeued flit 4076
Requeued flit 10445
Requeued flit 10674
Requeued flit 13995
Requeued flit 14071
Requeued flit 12666
Requeued flit 4440
Requeued flit 5482
Requeued flit 10389
Requeued flit 10338
Requeued flit 14084
Requeued flit 10819
Requeued flit 4105
Requeued flit 12239
Requeued flit 8288
Requeued flit 14009
Requeued flit 13859
Requeued flit 14177
Requeued flit 8415
Requeued flit 12196
Requeued flit 10295
Requeued flit 14156
Requeued flit 5961
Requeued flit 11899
Requeued flit 6109
Requeued flit 11631
Requeued flit 10604
Requeued flit 7794
Requeued flit 12367
Requeued flit 12333
Requeued flit 6554
Requeued flit 6462
Requeued flit 14108
Requeued flit 13476
Requeued flit 10863
Requeued flit 11084
Requeued flit 6704
Requeued flit 14303
Requeued flit 11914
Requeued flit 5093
Requeued flit 8355
Requeued flit 14058
Requeued flit 10429
Requeued flit 7779
Requeued flit 6418
Requeued flit 5797
Requeued flit 13624
Requeued flit 7722
Requeued flit 4917
Requeued flit 10256
Requeued flit 11319
Requeued flit 8501
Requeued flit 10409
Requeued flit 6440
Requeued flit 8125
Requeued flit 12972
Requeued flit 10597
Requeued flit 12502
Requeued flit 5737
Requeued flit 10343
Requeued flit 5368
Requeued flit 4981
Requeued flit 10457
Requeued flit 10747
Requeued flit 10591
Requeued flit 11191
Requeued flit 12553
Requeued flit 10850
Requeued flit 4824
Requeued flit 11243
Requeued flit 3823
Requeued flit 10935
Requeued flit 12168
Requeued flit 11205
Requeued flit 6729
Requeued flit 11555
Requeued flit 6626
Requeued flit 13303
Requeued flit 3216
Requeued flit 10986
Requeued flit 5511
Requeued flit 5632
Requeued flit 13133
Requeued flit 14735
Requeued flit 9816
Requeued flit 10533
Requeued flit 11519
Requeued flit 10620
Requeued flit 8689
Requeued flit 9307
Requeued flit 8824
Requeued flit 7950
Requeued flit 14802
Requeued flit 3951
Requeued flit 6347
Requeued flit 4118
Requeued flit 10912
Requeued flit 9458
Requeued flit 12169
Requeued flit 10445
Requeued flit 5711
Requeued flit 14669
Requeued flit 13357
Requeued flit 10854
Requeued flit 6976
Requeued flit 6664
Requeued flit 9320
Requeued flit 14989
Requeued flit 11026
Requeued flit 14963
Requeued flit 11256
Requeued flit 11094
Requeued flit 13123
Requeued flit 10954
Requeued flit 11606
Requeued flit 6952
Requeued flit 10145
Requeued flit 8310
Requeued flit 10464
Requeued flit 11020
Requeued flit 8731
Requeued flit 13462
Requeued flit 15125
Requeued flit 13820
Requeued flit 9112
Requeued flit 10728
Requeued flit 5862
Requeued flit 6852
Requeued flit 12601
Requeued flit 10115
Requeued flit 11144
Requeued flit 15182
Requeued flit 8568
Requeued flit 6344
Requeued flit 10568
Requeued flit 15157
Requeued flit 8360
Requeued flit 7992
Requeued flit 14628
Requeued flit 8907
Requeued flit 11885
Requeued flit 10159
Requeued flit 11437
Requeued flit 15246
Requeued flit 11211
Requeued flit 4708
Requeued flit 10808
Requeued flit 6895
Requeued flit 6519
Requeued flit 15208
Requeued flit 15269
Requeued flit 6994
Requeued flit 7362
Requeued flit 14300
Requeued flit 15294
Requeued flit 10934
Requeued flit 11558
Requeued flit 6738
Requeued flit 8575
Requeued flit 10031
Requeued flit 11417
Requeued flit 13211
Requeued flit 6105
Requeued flit 7506
Requeued flit 11177
Requeued flit 11846
Requeued flit 6764
Requeued flit 11446
Requeued flit 10835
Requeued flit 13015
Requeued flit 7339
Requeued flit 8490
Requeued flit 12286
Requeued flit 15402
Requeued flit 7492
Requeued flit 11678
Requeued flit 13270
Requeued flit 13234
Requeued flit 6241
Requeued flit 13615
Requeued flit 11426
Requeued flit 13456
Requeued flit 6949
Requeued flit 12148
Requeued flit 11609
Requeued flit 13248
Requeued flit 15195
Requeued flit 8891
Requeued flit 9555
Requeued flit 8946
Requeued flit 8799
Requeued flit 7289
Requeued flit 13377
Requeued flit 11800
Requeued flit 6345
Requeued flit 11376
Requeued flit 11057
Requeued flit 14614
Requeued flit 5815
Requeued flit 8674
Requeued flit 10037
Requeued flit 5998
Requeued flit 9155
Requeued flit 15569
Requeued flit 7232
Requeued flit 11502
Requeued flit 7130
Requeued flit 15603
Requeued flit 8941
Requeued flit 8906
Requeued flit 6409
Requeued flit 15804
Requeued flit 13295
Requeued flit 12152
Requeued flit 8792
Requeued flit 15821
Requeued flit 12327
Requeued flit 15785
Requeued flit 5720
Requeued flit 7767
Requeued flit 8198
Requeued flit 7172
Requeued flit 10843
Requeued flit 11246
Requeued flit 15877
Requeued flit 7123
Requeued flit 8543
Requeued flit 15836
Requeued flit 15314
Requeued flit 3306
Requeued flit 8527
Requeued flit 4356
Requeued flit 10282
Requeued flit 15585
Requeued flit 11341
Requeued flit 13079
Requeued flit 6731
Requeued flit 5686
Requeued flit 6559
Requeued flit 15873
Requeued flit 4312
Requeued flit 10778
Requeued flit 15889
Requeued flit 11662
Requeued flit 5519
Requeued flit 15680
Requeued flit 16076
Requeued flit 13793
Requeued flit 15775
Requeued flit 9568
Requeued flit 5064
Requeued flit 12146
Requeued flit 8248
Requeued flit 7912
Requeued flit 15725
Requeued flit 14871
Requeued flit 16173
Requeued flit 7110
Requeued flit 15211
Requeued flit 16144
Requeued flit 6930
Requeued flit 16212
Requeued flit 15798
Requeued flit 11959
Requeued flit 7749
Requeued flit 10947
Requeued flit 11168
Requeued flit 13218
Requeued flit 6596
Requeued flit 15862
Requeued flit 13691
Requeued flit 9350
Requeued flit 14632
Requeued flit 15927
Requeued flit 14409
Requeued flit 12934
Requeued flit 7921
Requeued flit 11814
Requeued flit 11981
Requeued flit 9167
Requeued flit 8660
Requeued flit 8897
Requeued flit 8363
Requeued flit 3306
Requeued flit 12756
Requeued flit 10753
Requeued flit 7686
Requeued flit 8343
Requeued flit 14598
Requeued flit 9572
Requeued flit 6807
Requeued flit 11716
Requeued flit 12376
Requeued flit 4480
Requeued flit 16505
Requeued flit 16506
Requeued flit 14268
Requeued flit 16523
Requeued flit 10658
Requeued flit 12894
Requeued flit 10872
Requeued flit 15438
Requeued flit 6657
Requeued flit 7543
Requeued flit 3414
Requeued flit 14016
Requeued flit 16577
Requeued flit 9134
Requeued flit 8543
Requeued flit 6888
Requeued flit 15902
Requeued flit 12573
Requeued flit 8298
Requeued flit 9279
Requeued flit 5218
Requeued flit 14155
Requeued flit 15481
Requeued flit 11931
Requeued flit 6424
Requeued flit 14959
Requeued flit 5664
Requeued flit 12721
Requeued flit 5626
Requeued flit 11575
Requeued flit 16431
Requeued flit 6229
Requeued flit 10844
Requeued flit 14235
Requeued flit 8895
Requeued flit 11711
Requeued flit 16856
Requeued flit 7473
Requeued flit 14592
Requeued flit 9869
Requeued flit 4708
Requeued flit 16510
Requeued flit 15537
Requeued flit 11152
Requeued flit 6200
Requeued flit 13143
Requeued flit 5548
Requeued flit 13567
Requeued flit 4536
Requeued flit 5066
Requeued flit 6715
Requeued flit 6395
Requeued flit 15532
Requeued flit 11339
Requeued flit 6116
Requeued flit 13033
Requeued flit 16379
Requeued flit 16977
Requeued flit 13445
Requeued flit 14099
Requeued flit 17015
Requeued flit 8666
Requeued flit 6646
Requeued flit 6758
Requeued flit 7860
Requeued flit 9985
Requeued flit 8256
Requeued flit 14171
Requeued flit 4603
Requeued flit 3939
Requeued flit 10900
Requeued flit 5327
Requeued flit 6842
Requeued flit 16988
Requeued flit 15983
Requeued flit 4686
Requeued flit 11545
Requeued flit 7853
Requeued flit 14241
Requeued flit 5786
Requeued flit 17092
Requeued flit 8030
Requeued flit 12531
Requeued flit 15153
Requeued flit 12487
Requeued flit 5014
Requeued flit 9511
Requeued flit 17202
Requeued flit 6428
Requeued flit 13971
Requeued flit 14847
Requeued flit 10092
Requeued flit 12321
Requeued flit 9187
Requeued flit 6511
Requeued flit 9806
Requeued flit 8685
Requeued flit 13232
Requeued flit 12901
Requeued flit 17094
Requeued flit 13954
Requeued flit 11666
Requeued flit 11604
Requeued flit 11690
Requeued flit 8077
Requeued flit 11278
Requeued flit 11857
Requeued flit 8335
Requeued flit 12996
Requeued flit 14667
Requeued flit 8270
Requeued flit 11388
Requeued flit 12134
Requeued flit 17508
Requeued flit 6575
Requeued flit 16128
Requeued flit 9160
Requeued flit 14182
Requeued flit 9584
Requeued flit 15725
Requeued flit 12399
Requeued flit 9272
Requeued flit 13071
Requeued flit 7000
Requeued flit 10893
Requeued flit 5981
Requeued flit 11325
Requeued flit 12508
Requeued flit 7540
Requeued flit 17613
Requeued flit 15708
Requeued flit 9610
Requeued flit 7955
Requeued flit 12672
Requeued flit 11397
Requeued flit 13225
Requeued flit 10527
Requeued flit 8989
Requeued flit 17700
Requeued flit 13330
Requeued flit 14363
Requeued flit 13984
Requeued flit 10741
Requeued flit 7606
Requeued flit 13073
Requeued flit 13414
Requeued flit 14854
Requeued flit 8597
Requeued flit 13654
Requeued flit 11538
Requeued flit 13306
Requeued flit 13805
Requeued flit 12325
Requeued flit 6944
Requeued flit 13163
Requeued flit 6878
Requeued flit 7548
Requeued flit 5457
Requeued flit 11219
Requeued flit 5470
Requeued flit 13767
Requeued flit 12088
Requeued flit 8289
Requeued flit 9988
Requeued flit 11640
Requeued flit 12532
Requeued flit 8246
Requeued flit 11135
Requeued flit 9716
Requeued flit 17902
Requeued flit 15604
Requeued flit 14350
Requeued flit 17279
Requeued flit 6393
Requeued flit 8518
Requeued flit 14437
Requeued flit 13775
Requeued flit 13389
Requeued flit 6870
Requeued flit 13874
Requeued flit 7657
Requeued flit 14591
Requeued flit 16179
Requeued flit 18045
Requeued flit 14557
Requeued flit 14063
Requeued flit 11186
Requeued flit 7138
Requeued flit 9362
Requeued flit 13010
Requeued flit 17986
Requeued flit 16561
Requeued flit 17003
Requeued flit 9825
Requeued flit 16168
Requeued flit 11830
Requeued flit 18237
Requeued flit 13315
Requeued flit 18248
Requeued flit 11228
Requeued flit 13653
Requeued flit 15893
Requeued flit 10941
Requeued flit 18271
Requeued flit 7438
Requeued flit 18277
Requeued flit 18284
Requeued flit 6166
Requeued flit 8438
Requeued flit 13354
Requeued flit 7465
Requeued flit 6935
Requeued flit 9103
Requeued flit 13256
Requeued flit 7889
Requeued flit 14394
Requeued flit 14260
Requeued flit 5871
Requeued flit 12458
Requeued flit 6975
Requeued flit 13704
Requeued flit 7657
Requeued flit 18507
Requeued flit 6852
Requeued flit 7137
Requeued flit 18315
Requeued flit 14169
Requeued flit 6721
Requeued flit 16344
Requeued flit 15584
Requeued flit 14390
Requeued flit 5240
Requeued flit 9491
Requeued flit 18559
Requeued flit 11228
Requeued flit 8215
Requeued flit 6068
Requeued flit 16875
Requeued flit 18402
Requeued flit 15642
Requeued flit 13174
Requeued flit 17929
Requeued flit 18597
Requeued flit 16177
Requeued flit 14057
Requeued flit 9401
Requeued flit 7345
Requeued flit 14296
Requeued flit 8584
Requeued flit 5675
Requeued flit 9993
Requeued flit 9320
Requeued flit 10703
Requeued flit 10623
Requeued flit 16345
Requeued flit 18780
Requeued flit 13475
Requeued flit 12457
Requeued flit 8985
Requeued flit 14527
Requeued flit 18664
Requeued flit 11236
Requeued flit 18796
Requeued flit 15005
Requeued flit 9902
Requeued flit 18643
Requeued flit 14463
Requeued flit 18697
Requeued flit 13346
Requeued flit 4608
Requeued flit 7165
Requeued flit 16803
Requeued flit 18632
Requeued flit 18688
Requeued flit 10408
Requeued flit 13930
Requeued flit 13572
Requeued flit 19013
Requeued flit 15933
Requeued flit 18994
Requeued flit 12639
Requeued flit 13355
Requeued flit 10786
Requeued flit 13159
Requeued flit 14475
Requeued flit 10346
Requeued flit 19157
Requeued flit 18505
Requeued flit 19172
Requeued flit 9738
Requeued flit 7435
Requeued flit 9923
Requeued flit 17937
Requeued flit 6856
Requeued flit 19224
Requeued flit 19178
Requeued flit 8710
Requeued flit 9283
Requeued flit 7111
Requeued flit 13411
Requeued flit 10818
Requeued flit 19248
Requeued flit 12153
Requeued flit 14730
Requeued flit 9343
Requeued flit 14905
Requeued flit 6863
Requeued flit 6285
Requeued flit 19322
Requeued flit 16803
Requeued flit 17732
Requeued flit 14498
Requeued flit 15919
Requeued flit 9461
Requeued flit 14906
Requeued flit 13736
Requeued flit 15899
Requeued flit 14212
Requeued flit 19422
Requeued flit 19429
Requeued flit 12048
Requeued flit 6922
Requeued flit 12003
Requeued flit 13978
Requeued flit 19332
Requeued flit 5792
Requeued flit 19447
Requeued flit 7983
Requeued flit 7799
Requeued flit 15631
Requeued flit 17150
Requeued flit 14508
Requeued flit 7560
Requeued flit 11560
Requeued flit 10519
Requeued flit 8535
Requeued flit 11299
Requeued flit 11208
Requeued flit 9939
Requeued flit 9730
Requeued flit 7839
Requeued flit 12622
Requeued flit 13270
Requeued flit 8024
Requeued flit 18435
Requeued flit 12018
Requeued flit 19564
Requeued flit 10817
Requeued flit 11135
Requeued flit 9919
Requeued flit 18994
Requeued flit 19375
Requeued flit 14029
Requeued flit 5791
Requeued flit 16611
Requeued flit 17384
Requeued flit 12436
Requeued flit 17337
Requeued flit 16748
Requeued flit 14417
Requeued flit 18487
Requeued flit 11048
Requeued flit 10672
Requeued flit 11012
Requeued flit 4836
Requeued flit 15226
Requeued flit 14574
Requeued flit 11542
Requeued flit 14137
Requeued flit 14825
Requeued flit 10785
Requeued flit 14403
Requeued flit 11522
Requeued flit 14754
Requeued flit 11543
Requeued flit 14497
Requeued flit 16017
Requeued flit 19209
Requeued flit 19761
Requeued flit 8161
Requeued flit 14843
Requeued flit 5792
Requeued flit 10053
Requeued flit 14898
Requeued flit 10760
Requeued flit 12153
Requeued flit 15110
Requeued flit 11837
Requeued flit 11982
Requeued flit 8010
Requeued flit 10469
Requeued flit 14748
Requeued flit 14412
Requeued flit 8249
Requeued flit 9666
Requeued flit 9452
Requeued flit 7255
Requeued flit 10654
Requeued flit 14423
Requeued flit 20078
Requeued flit 13072
Requeued flit 9101
Requeued flit 7928
Requeued flit 20117
Requeued flit 20118
Requeued flit 14446
Requeued flit 6089
Requeued flit 19663
Requeued flit 15024
Requeued flit 13981
Requeued flit 20048
Requeued flit 15648
Requeued flit 14821
Requeued flit 15517
Requeued flit 8628
Requeued flit 7872
Requeued flit 15019
Requeued flit 14213
Requeued flit 5764
Requeued flit 9894
Requeued flit 11336
Requeued flit 20242
Requeued flit 7132
Requeued flit 16870
Requeued flit 13577
Requeued flit 9442
Requeued flit 10566
Requeued flit 5080
Requeued flit 20243
Requeued flit 5546
Requeued flit 7438
Requeued flit 10831
Requeued flit 20360
Requeued flit 17859
Requeued flit 16590
Requeued flit 13013
Requeued flit 11442
Requeued flit 10723
Requeued flit 20380
Requeued flit 10317
Requeued flit 8599
Requeued flit 5604
Requeued flit 15234
Requeued flit 11039
Requeued flit 15845
Requeued flit 16440
Requeued flit 19472
Requeued flit 20397
Requeued flit 15387
Requeued flit 15286
Requeued flit 15503
Requeued flit 14039
Requeued flit 12123
Requeued flit 15993
Requeued flit 10824
Requeued flit 15137
Requeued flit 9161
Requeued flit 11111
Requeued flit 20177
Requeued flit 5991
Requeued flit 10115
Requeued flit 14226
Requeued flit 19464
Requeued flit 15572
Requeued flit 17215
Requeued flit 17516
Requeued flit 4824
Requeued flit 14321
Requeued flit 18204
Requeued flit 17193
Requeued flit 15734
Requeued flit 15497
Requeued flit 7461
Requeued flit 13727
Requeued flit 18086
Requeued flit 8339
Requeued flit 13185
Requeued flit 16446
Requeued flit 15684
Requeued flit 10092
Requeued flit 18909
Requeued flit 12352
Requeued flit 18285
Requeued flit 10463
Requeued flit 15710
Requeued flit 16038
Requeued flit 18244
Requeued flit 20697
Requeued flit 9610
Requeued flit 17296
Requeued flit 18814
Requeued flit 9834
Requeued flit 11748
Requeued flit 13284
Requeued flit 8542
Requeued flit 17758
Requeued flit 20886
Requeued flit 20566
Requeued flit 16997
Requeued flit 14786
Requeued flit 15012
Requeued flit 8890
Requeued flit 19885
Requeued flit 8823
Requeued flit 16771
Requeued flit 20995
Requeued flit 17046
Requeued flit 9348
Requeued flit 8532
Requeued flit 14117
Requeued flit 16448
Requeued flit 8736
Requeued flit 14280
Requeued flit 16989
Requeued flit 9445
Requeued flit 17895
Requeued flit 12423
Requeued flit 20783
Requeued flit 12495
Requeued flit 11081
Requeued flit 13765
Requeued flit 13197
Requeued flit 18595
Requeued flit 15251
Requeued flit 8135
Requeued flit 14781
Requeued flit 14714
Requeued flit 12864
Requeued flit 6891
Requeued flit 8390
Requeued flit 9005
Requeued flit 15756
Requeued flit 7604
Requeued flit 15812
Requeued flit 15090
Requeued flit 21211
Requeued flit 16014
Requeued flit 21225
Requeued flit 19111
Requeued flit 6200
Requeued flit 19176
Requeued flit 6438
Requeued flit 17025
Requeued flit 21157
Requeued flit 6802
Requeued flit 16580
Requeued flit 8047
Requeued flit 8282
Requeued flit 16554
Requeued flit 8836
Requeued flit 21365
Requeued flit 17527
Requeued flit 14788
Requeued flit 8273
Requeued flit 21017
Requeued flit 21352
Requeued flit 15098
Requeued flit 8507
Requeued flit 21330
Requeued flit 17788
Requeued flit 21332
Requeued flit 8200
Requeued flit 15394
Requeued flit 14747
Requeued flit 14603
Requeued flit 20993
Requeued flit 16472
Requeued flit 11442
Requeued flit 15255
Requeued flit 17734
Requeued flit 15164
Requeued flit 13886
Requeued flit 11720
Requeued flit 9737
Requeued flit 21132
Requeued flit 8485
Requeued flit 17273
Requeued flit 15998
Requeued flit 12033
Requeued flit 18939
Requeued flit 19228
Requeued flit 15362
Requeued flit 9561
Requeued flit 9001
Requeued flit 7549
Requeued flit 16225
Requeued flit 16255
Requeued flit 9499
Requeued flit 11616
Requeued flit 7278
Requeued flit 21745
Requeued flit 14667
Requeued flit 7635
Requeued flit 9813
Requeued flit 17657
Requeued flit 9214
Requeued flit 9066
Requeued flit 10788
Requeued flit 21872
Requeued flit 16681
Requeued flit 21630
Requeued flit 21624
Requeued flit 12137
Requeued flit 15970
Requeued flit 13891
Requeued flit 18442
Requeued flit 10348
Requeued flit 19625
Requeued flit 9067
Requeued flit 19578
Requeued flit 17840
Requeued flit 16619
Requeued flit 6757
Requeued flit 18425
Requeued flit 21348
Requeued flit 21984
Requeued flit 13230
Requeued flit 21936
Requeued flit 21728
Requeued flit 16015
Requeued flit 22040
Requeued flit 20630
Requeued flit 9091
Requeued flit 6523
Requeued flit 11593
Requeued flit 16402
Requeued flit 22096
Requeued flit 18127
Requeued flit 7724
Requeued flit 16694
Requeued flit 12016
Requeued flit 16622
Requeued flit 15318
Requeued flit 21720
Requeued flit 15235
Requeued flit 18042
Requeued flit 9381
Requeued flit 5912
Requeued flit 12491
Requeued flit 22102
Requeued flit 14644
Requeued flit 14606
Requeued flit 5308
Requeued flit 12297
Requeued flit 20168
Requeued flit 18172
Requeued flit 8859
Requeued flit 12283
Requeued flit 19962
Requeued flit 15790
Requeued flit 16837
Requeued flit 20625
Requeued flit 17012
Requeued flit 18100
Requeued flit 19154
Requeued flit 22171
Requeued flit 11217
Requeued flit 16898
Requeued flit 13948
Requeued flit 14966
Requeued flit 17277
Requeued flit 9249
Requeued flit 18856
Requeued flit 11911
Requeued flit 13392
Requeued flit 17143
Requeued flit 16736
Requeued flit 22485
Requeued flit 12864
Requeued flit 7991
Requeued flit 22492
Requeued flit 6842
Requeued flit 7620
Requeued flit 9137
Requeued flit 13819
Requeued flit 14668
Requeued flit 12140
Requeued flit 22667
Requeued flit 10502
Requeued flit 20328
Requeued flit 11339
Requeued flit 10220
Requeued flit 21661
Requeued flit 19818
Requeued flit 12580
Requeued flit 18258
Requeued flit 16276
Requeued flit 17602
Requeued flit 10412
Requeued flit 11287
Requeued flit 12159
Requeued flit 17051
Requeued flit 17060
Requeued flit 22702
Requeued flit 8930
Requeued flit 17195
Requeued flit 18606
Requeued flit 11617
Requeued flit 22754
Requeued flit 8756
Requeued flit 17750
Requeued flit 9106
Requeued flit 17082
Requeued flit 12639
Requeued flit 11372
Requeued flit 14111
Requeued flit 16814
Requeued flit 18318
Requeued flit 9047
Requeued flit 22897
Requeued flit 18946
Requeued flit 9589
Requeued flit 18423
Requeued flit 22485
Requeued flit 12454
Requeued flit 9008
Requeued flit 18638
Requeued flit 10739
Requeued flit 12214
Requeued flit 12687
Requeued flit 17204
Requeued flit 14003
Requeued flit 7885
Requeued flit 6218
Requeued flit 18414
Requeued flit 12518
Requeued flit 17461
Requeued flit 22324
Requeued flit 7998
Requeued flit 21621
Requeued flit 13186
Requeued flit 14615
Requeued flit 17789
Requeued flit 17853
Requeued flit 15096
Requeued flit 23116
Requeued flit 10913
Requeued flit 17329
Requeued flit 12394
Requeued flit 23164
Requeued flit 17006
Requeued flit 11094
Requeued flit 9423
Requeued flit 13837
Requeued flit 12631
Requeued flit 23226
Requeued flit 18998
Requeued flit 11185
Requeued flit 14767
Requeued flit 15323
Requeued flit 23333
Requeued flit 22267
Requeued flit 7646
Requeued flit 17507
Requeued flit 9325
Requeued flit 19744
Requeued flit 20518
Requeued flit 16446
Requeued flit 13516
Requeued flit 12530
Requeued flit 12471
Requeued flit 22999
Requeued flit 14734
Requeued flit 13131
Requeued flit 17083
Requeued flit 17885
Requeued flit 9925
Requeued flit 17098
Requeued flit 17623
Requeued flit 6219
Requeued flit 8372
Requeued flit 9658
Requeued flit 21127
Requeued flit 15742
Requeued flit 14591
Requeued flit 12620
Requeued flit 22289
Requeued flit 17711
Requeued flit 14444
Requeued flit 9947
Requeued flit 13153
Requeued flit 18311
Requeued flit 22210
Requeued flit 10399
Requeued flit 19315
Requeued flit 10520
Requeued flit 10793
Requeued flit 22163
Requeued flit 23522
Requeued flit 20983
Requeued flit 12692
Requeued flit 15814
Requeued flit 12141
Requeued flit 21247
Requeued flit 23711
Requeued flit 14972
Requeued flit 19270
Requeued flit 15390
Requeued flit 22161
Requeued flit 9853
Requeued flit 20701
Requeued flit 17353
Requeued flit 17559
Requeued flit 23720
Requeued flit 21161
Requeued flit 9171
Requeued flit 20253
Requeued flit 12226
Requeued flit 23860
Requeued flit 20843
Requeued flit 14489
Requeued flit 23837
Requeued flit 15862
Requeued flit 9263
Requeued flit 18265
Requeued flit 20062
Requeued flit 13663
Requeued flit 10787
Requeued flit 20705
Requeued flit 22653
Requeued flit 21420
Requeued flit 10681
Requeued flit 13727
Requeued flit 9449
Requeued flit 16967
Requeued flit 22398
Requeued flit 17463
Requeued flit 24057
Requeued flit 21639
Requeued flit 9854
Requeued flit 4824
Requeued flit 17145
Requeued flit 10200
Requeued flit 21534
Requeued flit 10466
Requeued flit 21492
Requeued flit 24075
Requeued flit 12358
Requeued flit 23026
Requeued flit 9320
Requeued flit 13275
Requeued flit 16335
Requeued flit 6242
Requeued flit 13606
Requeued flit 19149
Requeued flit 10029
Requeued flit 14612
Requeued flit 10799
Requeued flit 14541
Requeued flit 17713
Requeued flit 13710
Requeued flit 8422
Requeued flit 18269
Requeued flit 13858
Requeued flit 19653
Requeued flit 15781
Requeued flit 13912
Requeued flit 10470
Requeued flit 13196
Requeued flit 8325
Requeued flit 15838
Requeued flit 8539
Requeued flit 18579
Requeued flit 24360
Requeued flit 19631
Requeued flit 12801
Requeued flit 9389
Requeued flit 18287
Requeued flit 20676
Requeued flit 12019
Requeued flit 14779
Requeued flit 17720
Requeued flit 14340
Requeued flit 24096
Requeued flit 11668
Requeued flit 18622
Requeued flit 10640
Requeued flit 14048
Requeued flit 19184
Requeued flit 16770
Requeued flit 19679
Requeued flit 13097
Requeued flit 18043
Requeued flit 18758
Requeued flit 12147
Requeued flit 6189
Requeued flit 23797
Requeued flit 17131
Requeued flit 9500
Requeued flit 7824
Requeued flit 14113
Requeued flit 13554
Requeued flit 21754
Requeued flit 13211
Requeued flit 13007
Requeued flit 15420
Requeued flit 19006
Requeued flit 12971
Requeued flit 18875
Requeued flit 9485
Requeued flit 11710
Requeued flit 14308
Requeued flit 13508
Requeued flit 18916
Requeued flit 24909
Requeued flit 19790
Requeued flit 17622
Requeued flit 21751
Requeued flit 10168
Requeued flit 20752
Requeued flit 8801
Requeued flit 13441
Requeued flit 18808
Requeued flit 20252
Requeued flit 24939
Requeued flit 12881
Requeued flit 24852
Requeued flit 7786
Requeued flit 20883
Requeued flit 9621
Requeued flit 12329
Requeued flit 20034
Requeued flit 7557
Requeued flit 14769
Requeued flit 16018
Requeued flit 23625
Requeued flit 8647
Requeued flit 18644
Requeued flit 14215
Requeued flit 12516
Requeued flit 23418
Requeued flit 7981
Requeued flit 19021
Requeued flit 10141
Requeued flit 21890
Requeued flit 13549
Requeued flit 10625
Requeued flit 22396
Requeued flit 21105
Requeued flit 9275
Requeued flit 18943
Requeued flit 9900
Requeued flit 14998
Requeued flit 19503
Requeued flit 19929
Requeued flit 10246
Requeued flit 20767
Requeued flit 24202
Requeued flit 18336
Requeued flit 15155
Requeued flit 15912
Requeued flit 6961
Requeued flit 13397
Requeued flit 25345
Requeued flit 17266
Requeued flit 8782
Requeued flit 25287
Requeued flit 13537
Requeued flit 15314
Requeued flit 7664
Requeued flit 21808
Requeued flit 21439
Requeued flit 24934
Requeued flit 19729
Requeued flit 7559
Requeued flit 20065
Requeued flit 9621
Requeued flit 19380
Requeued flit 20577
Requeued flit 22540
Requeued flit 10127
Requeued flit 24617
Requeued flit 17190
Requeued flit 11819
Requeued flit 21148
Requeued flit 20077
Requeued flit 21155
Requeued flit 16865
Requeued flit 9746
Requeued flit 12769
Requeued flit 13867
Requeued flit 19127
Requeued flit 10624
Requeued flit 19481
Requeued flit 19855
Requeued flit 21509
Requeued flit 21287
Requeued flit 14428
Requeued flit 21702
Requeued flit 25783
Requeued flit 9581
Requeued flit 18031
Requeued flit 19568
Requeued flit 19252
Requeued flit 23832
Requeued flit 23848
Requeued flit 18032
Requeued flit 8792
Requeued flit 25914
Requeued flit 25716
Requeued flit 13454
Requeued flit 17472
Requeued flit 16081
Requeued flit 25855
Requeued flit 19459
Requeued flit 17567
Requeued flit 25919
Requeued flit 13840
Requeued flit 25962
Requeued flit 9901
Requeued flit 23797
Requeued flit 23108
Requeued flit 11399
Requeued flit 13698
Requeued flit 20088
Requeued flit 6284
Requeued flit 19412
Requeued flit 17728
Requeued flit 23042
Requeued flit 19438
Requeued flit 18140
Requeued flit 17901
Requeued flit 26116
Requeued flit 19823
Requeued flit 15467
Requeued flit 18548
Requeued flit 26141
Requeued flit 11495
Requeued flit 9465
Requeued flit 23139
Requeued flit 22103
Requeued flit 13228
Requeued flit 19893
Requeued flit 18880
Requeued flit 8795
Requeued flit 11479
Requeued flit 18190
Requeued flit 18820
Requeued flit 7370
Requeued flit 22271
Requeued flit 10916
Requeued flit 26340
Requeued flit 19465
Requeued flit 10732
Requeued flit 21944
Requeued flit 19743
Requeued flit 14421
Requeued flit 13901
Requeued flit 9281
Requeued flit 23308
Requeued flit 19645
Requeued flit 10975
Requeued flit 26325
Requeued flit 6123
Requeued flit 21839
Requeued flit 21794
Requeued flit 23001
Requeued flit 13164
Requeued flit 22529
Requeued flit 10175
Requeued flit 24286
Requeued flit 25268
Requeued flit 26562
Requeued flit 24797
Requeued flit 26512
Requeued flit 14551
Requeued flit 17872
Requeued flit 16729
Requeued flit 12080
Requeued flit 19243
Requeued flit 22657
Requeued flit 20330
Requeued flit 18987
Requeued flit 18013
Requeued flit 7548
Requeued flit 19882
Requeued flit 21232
Requeued flit 18450
Requeued flit 9456
Requeued flit 10974
Requeued flit 23359
Requeued flit 14703
Requeued flit 26624
Requeued flit 19788
Requeued flit 15748
Requeued flit 24429
Requeued flit 20616
Requeued flit 26697
Requeued flit 20692
Requeued flit 20344
Requeued flit 13367
Requeued flit 10523
Requeued flit 9988
Requeued flit 9841
Requeued flit 16177
Requeued flit 15184
Requeued flit 19411
Requeued flit 26792
Requeued flit 26845
Requeued flit 19200
Requeued flit 19039
Requeued flit 13330
Requeued flit 26165
Requeued flit 18634
Requeued flit 13919
Requeued flit 9304
Requeued flit 13255
Requeued flit 8369
Requeued flit 19550
Requeued flit 8814
Requeued flit 11521
Requeued flit 15023
Requeued flit 19502
Requeued flit 26940
Requeued flit 24199
Requeued flit 12745
Requeued flit 19701
Requeued flit 26889
Requeued flit 21464
Requeued flit 15572
Requeued flit 20123
Requeued flit 10414
Requeued flit 15494
Requeued flit 7214
Requeued flit 18379
Requeued flit 13928
Requeued flit 10717
Requeued flit 11262
Requeued flit 25013
Requeued flit 14326
Requeued flit 23279
Requeued flit 26696
Requeued flit 20290
Requeued flit 21153
Requeued flit 19665
Requeued flit 10775
Requeued flit 20008
Requeued flit 27179
Requeued flit 27083
Requeued flit 8817
Requeued flit 13560
Requeued flit 14335
Requeued flit 16086
Requeued flit 14531
Requeued flit 26740
Requeued flit 21216
Requeued flit 9783
Requeued flit 17301
Requeued flit 27305
Requeued flit 18853
Requeued flit 11329
Requeued flit 22946
Requeued flit 27348
Requeued flit 21697
Requeued flit 21813
Requeued flit 10594
Requeued flit 19986
Requeued flit 19865
Requeued flit 18272
Requeued flit 24539
Requeued flit 17513
Requeued flit 27374
Requeued flit 11368
Requeued flit 13068
Requeued flit 13250
Requeued flit 8333
Requeued flit 19975
Requeued flit 20526
Requeued flit 15918
Requeued flit 13182
Requeued flit 9848
Requeued flit 20178
Requeued flit 8629
Requeued flit 9159
Requeued flit 13588
Requeued flit 15080
Requeued flit 7745
Requeued flit 14689
Requeued flit 15277
Requeued flit 14770
Requeued flit 22788
Requeued flit 20123
Requeued flit 27564
Requeued flit 10581
Requeued flit 18537
Requeued flit 21478
Requeued flit 14980
Requeued flit 24370
Requeued flit 22137
Requeued flit 20902
Requeued flit 27267
Requeued flit 22781
Requeued flit 16413
Requeued flit 27623
Requeued flit 10001
Requeued flit 16634
Requeued flit 10722
Requeued flit 11097
Requeued flit 27501
Requeued flit 15431
Requeued flit 19267
Requeued flit 18961
Requeued flit 18893
Requeued flit 20543
Requeued flit 21592
Requeued flit 17166
Requeued flit 20147
Requeued flit 20823
Requeued flit 13237
Requeued flit 22626
Requeued flit 10907
Requeued flit 19185
Requeued flit 11684
Requeued flit 21072
Requeued flit 15376
Requeued flit 18876
Requeued flit 12044
Requeued flit 27768
Requeued flit 17196
Requeued flit 14552
Requeued flit 11888
Requeued flit 25798
Requeued flit 12250
Requeued flit 13672
Requeued flit 20289
Requeued flit 17369
Requeued flit 10854
Requeued flit 14060
Requeued flit 14688
Requeued flit 12667
Requeued flit 20997
Requeued flit 16711
Requeued flit 21548
Requeued flit 18401
Requeued flit 19803
Requeued flit 24311
Requeued flit 9270
Requeued flit 10892
Requeued flit 26123
Requeued flit 21415
Requeued flit 21417
Requeued flit 22083
Requeued flit 27747
Requeued flit 6632
Requeued flit 22059
Requeued flit 24919
Requeued flit 16461
Requeued flit 16580
Requeued flit 28133
Requeued flit 16135
Requeued flit 14125
Requeued flit 15875
Requeued flit 16409
Requeued flit 28078
Requeued flit 24576
Requeued flit 27607
Requeued flit 11003
Requeued flit 28286
Requeued flit 13777
Requeued flit 21104
Requeued flit 21469
Requeued flit 28211
Requeued flit 12753
Requeued flit 11231
Requeued flit 11785
Requeued flit 19927
Requeued flit 17036
Requeued flit 22569
Requeued flit 28354
Requeued flit 28381
Requeued flit 14008
Requeued flit 20576
Requeued flit 21767
Requeued flit 20958
Requeued flit 20641
Requeued flit 18993
Requeued flit 21460
Requeued flit 16496
Requeued flit 16567
Requeued flit 24019
Requeued flit 15230
Requeued flit 23581
Requeued flit 20821
Requeued flit 28417
Requeued flit 12364
Requeued flit 22144
Requeued flit 21594
Requeued flit 10930
Requeued flit 16961
Requeued flit 21190
Requeued flit 23648
Requeued flit 20778
Requeued flit 12638
Requeued flit 24706
Requeued flit 28610
Requeued flit 11450
Requeued flit 19105
Requeued flit 12959
Requeued flit 18052
Requeued flit 15075
Requeued flit 10558
Requeued flit 10900
Requeued flit 13244
Requeued flit 27451
Requeued flit 22764
Requeued flit 20265
Requeued flit 17437
Requeued flit 28728
Requeued flit 18056
Requeued flit 21459
Requeued flit 10611
Requeued flit 21933
Requeued flit 22264
Requeued flit 15231
Requeued flit 21229
Requeued flit 17253
Requeued flit 9452
Requeued flit 28159
Requeued flit 12527
Requeued flit 10425
Requeued flit 24271
Requeued flit 20961
Requeued flit 18806
Requeued flit 18607
Requeued flit 15812
Requeued flit 15248
Requeued flit 22731
Requeued flit 19153
Requeued flit 10379
Requeued flit 16344
Requeued flit 19667
Requeued flit 23450
Requeued flit 28583
Requeued flit 27330
Requeued flit 28809
Requeued flit 13132
Requeued flit 28821
Requeued flit 16652
Requeued flit 16558
Requeued flit 25905
Requeued flit 19841
Requeued flit 28745
Requeued flit 21964
Requeued flit 21383
Requeued flit 19848
Requeued flit 27907
Requeued flit 28890
Requeued flit 29013
Requeued flit 17771
Requeued flit 28711
Requeued flit 28755
Requeued flit 19557
Requeued flit 15160
Requeued flit 27625
Requeued flit 28556
Requeued flit 16145
Requeued flit 10486
Requeued flit 11634
Requeued flit 11203
Requeued flit 28105
Requeued flit 21259
Requeued flit 21215
Requeued flit 10691
Requeued flit 26372
Requeued flit 21713
Requeued flit 13662
Requeued flit 20263
Requeued flit 20285
Requeued flit 15554
Requeued flit 22424
Requeued flit 29106
Requeued flit 22873
Requeued flit 13944
Requeued flit 21845
Requeued flit 11212
Requeued flit 15055
Requeued flit 22585
Requeued flit 21654
Requeued flit 29150
Requeued flit 21338
Requeued flit 29098
Requeued flit 12710
Requeued flit 27163
Requeued flit 22781
Requeued flit 15946
Requeued flit 22299
Requeued flit 21331
Requeued flit 9815
Requeued flit 29180
Requeued flit 24430
Requeued flit 14894
Requeued flit 24657
Requeued flit 13147
Requeued flit 21074
Requeued flit 12241
Requeued flit 14607
Requeued flit 24804
Requeued flit 25235
Requeued flit 29128
Requeued flit 22519
Requeued flit 15751
Requeued flit 22640
Requeued flit 23451
Requeued flit 15607
Requeued flit 21301
Requeued flit 21044
Requeued flit 12478
Requeued flit 13824
Requeued flit 14621
Requeued flit 22157
Requeued flit 18604
Requeued flit 9430
Requeued flit 13061
Requeued flit 22394
Requeued flit 13667
Requeued flit 16990
Requeued flit 13794
Requeued flit 22375
Requeued flit 23473
Requeued flit 23936
Requeued flit 29474
Requeued flit 17774
Requeued flit 12503
Requeued flit 16438
Requeued flit 29467
Requeued flit 18058
Requeued flit 22799
Requeued flit 21049
Requeued flit 12006
Requeued flit 17043
Requeued flit 29286
Requeued flit 17612
Requeued flit 29043
Requeued flit 13876
Requeued flit 13223
Requeued flit 23555
Requeued flit 22321
Requeued flit 24468
Requeued flit 26177
Requeued flit 28635
Requeued flit 21623
Requeued flit 15312
Requeued flit 20593
Requeued flit 15837
Requeued flit 9297
Requeued flit 16569
Requeued flit 17657
Requeued flit 12308
Requeued flit 25032
Requeued flit 27747
Requeued flit 17158
Requeued flit 21665
Requeued flit 24531
Requeued flit 20363
Requeued flit 17776
Requeued flit 22808
Requeued flit 21589
Requeued flit 15472
Requeued flit 12470
Requeued flit 14778
Requeued flit 9416
Requeued flit 25698
Requeued flit 22015
Requeued flit 22676
Requeued flit 12257
Requeued flit 21421
Requeued flit 22027
Requeued flit 17206
Requeued flit 22221
Requeued flit 11584
Requeued flit 10432
Requeued flit 29836
Requeued flit 25680
Requeued flit 24440
Requeued flit 29752
Requeued flit 17268
Requeued flit 12233
Requeued flit 21084
Requeued flit 17325
Requeued flit 16179
Requeued flit 21588
Requeued flit 18487
Requeued flit 20848
Requeued flit 23871
Requeued flit 8044
Requeued flit 14049
Requeued flit 29841
Requeued flit 15141
Requeued flit 11790
Requeued flit 28824
Requeued flit 22918
Requeued flit 16864
Requeued flit 21645
Requeued flit 27101
Requeued flit 21617
Requeued flit 30044
Requeued flit 11366
Requeued flit 24333
Requeued flit 22909
Requeued flit 17173
Requeued flit 30183
Requeued flit 14780
Requeued flit 27225
Requeued flit 18144
Requeued flit 23157
Requeued flit 23865
Requeued flit 12113
Requeued flit 12307
Requeued flit 27344
Requeued flit 27241
Requeued flit 14199
Requeued flit 24109
Requeued flit 21607
Requeued flit 26027
Requeued flit 28480
Requeued flit 24035
Requeued flit 12470
Requeued flit 17718
Requeued flit 21181
Requeued flit 14083
Requeued flit 13326
Requeued flit 23102
Requeued flit 30317
Requeued flit 22135
Requeued flit 16891
Requeued flit 14057
Requeued flit 14033
Requeued flit 13129
Requeued flit 13497
Requeued flit 14836
Requeued flit 23563
Requeued flit 30176
Requeued flit 11673
Requeued flit 27589
Requeued flit 16345
Requeued flit 15885
Requeued flit 11965
Requeued flit 12257
Requeued flit 22750
Requeued flit 18085
Requeued flit 16919
Requeued flit 23268
Requeued flit 22647
Requeued flit 19862
Requeued flit 17668
Requeued flit 9481
Requeued flit 20752
Requeued flit 15793
Requeued flit 13126
Requeued flit 21973
Requeued flit 30552
Requeued flit 30559
Requeued flit 28771
Requeued flit 13189
Requeued flit 18659
Requeued flit 22270
Requeued flit 14765
Requeued flit 23386
Requeued flit 18491
Requeued flit 26489
Requeued flit 30512
Requeued flit 27990
Requeued flit 22453
Requeued flit 18940
Requeued flit 12377
Requeued flit 28177
Requeued flit 29493
Requeued flit 29470
Requeued flit 13907
Requeued flit 28339
Requeued flit 12929
Requeued flit 10869
Requeued flit 30683
Requeued flit 13576
Requeued flit 13619
Requeued flit 27289
Requeued flit 23453
Requeued flit 13103
Requeued flit 18565
Requeued flit 7278
Requeued flit 26995
Requeued flit 18470
Requeued flit 16439
Requeued flit 30812
Requeued flit 12013
Requeued flit 18407
Requeued flit 18588
Requeued flit 17077
Requeued flit 29129
Requeued flit 30927
Requeued flit 25527
Requeued flit 11984
Requeued flit 18454
Requeued flit 23507
Requeued flit 23855
Requeued flit 15814
Requeued flit 31050
Requeued flit 19364
Requeued flit 12854
Requeued flit 23037
Requeued flit 21607
Requeued flit 17056
Requeued flit 23627
Requeued flit 12112
Requeued flit 31115
Requeued flit 22064
Requeued flit 23471
Requeued flit 31140
Requeued flit 17428
Requeued flit 11722
Requeued flit 19148
Requeued flit 27804
Requeued flit 21847
Requeued flit 23160
Requeued flit 31205
Requeued flit 20566
Requeued flit 8017
Requeued flit 25073
Requeued flit 23761
Requeued flit 24758
Requeued flit 23501
Requeued flit 30167
Requeued flit 18982
Requeued flit 23187
Requeued flit 16155
Requeued flit 21584
Requeued flit 21352
Requeued flit 12611
Requeued flit 31313
Requeued flit 29095
Requeued flit 24644
Requeued flit 31395
Requeued flit 23142
Requeued flit 17988
Requeued flit 14531
Requeued flit 17416
Requeued flit 11500
Requeued flit 31200
Requeued flit 19482
Requeued flit 17071
Requeued flit 15407
Requeued flit 25380
Requeued flit 23421
Requeued flit 31460
Requeued flit 18443
Requeued flit 11628
Requeued flit 18397
Requeued flit 31499
Requeued flit 23826
Requeued flit 22511
Requeued flit 17565
Requeued flit 25192
Requeued flit 8249
Requeued flit 31501
Requeued flit 31239
Requeued flit 22656
Requeued flit 9696
Requeued flit 22960
Requeued flit 18737
Requeued flit 24394
Requeued flit 15901
Requeued flit 17052
Requeued flit 31596
Requeued flit 31179
Requeued flit 23590
Requeued flit 24491
Requeued flit 14387
Requeued flit 31314
Requeued flit 16152
Requeued flit 29939
Requeued flit 25557
Requeued flit 28216
Requeued flit 19478
Requeued flit 13416
Requeued flit 12719
Requeued flit 31710
Requeued flit 5636
Requeued flit 12398
Requeued flit 21221
Requeued flit 12336
Requeued flit 31724
Requeued flit 31682
Requeued flit 14616
Requeued flit 21493
Requeued flit 19067
Requeued flit 12021
Requeued flit 14263
Requeued flit 18551
Requeued flit 25136
Requeued flit 17965
Requeued flit 15876
Requeued flit 31815
Requeued flit 21947
Requeued flit 22927
Requeued flit 31562
Requeued flit 31838
Requeued flit 24815
Requeued flit 9132
Requeued flit 26008
Requeued flit 10403
Requeued flit 8985
Requeued flit 22086
Requeued flit 15841
Requeued flit 10948
Requeued flit 30844
Requeued flit 9233
Requeued flit 22787
Requeued flit 23007
Requeued flit 17426
Requeued flit 22377
Requeued flit 14165
Requeued flit 16777
Requeued flit 9696
Requeued flit 32084
Requeued flit 14617
Requeued flit 31530
Requeued flit 16841
Requeued flit 18191
Requeued flit 21207
Requeued flit 32100
Requeued flit 27850
Requeued flit 21983
Requeued flit 17700
Requeued flit 22496
Requeued flit 14136
Requeued flit 19215
Requeued flit 12322
Requeued flit 17511
Requeued flit 24813
Requeued flit 23733
Requeued flit 17483
Requeued flit 12364
Requeued flit 32312
Requeued flit 25729
Requeued flit 14514
Requeued flit 24504
Requeued flit 14693
Requeued flit 29807
Requeued flit 32194
Requeued flit 22842
Requeued flit 28935
Requeued flit 24535
Requeued flit 32219
Requeued flit 15912
Requeued flit 23054
Requeued flit 13925
Requeued flit 14873
Requeued flit 22377
Requeued flit 12767
Requeued flit 24956
Requeued flit 13452
Requeued flit 20069
Requeued flit 32332
Requeued flit 16302
Requeued flit 32507
Requeued flit 26045
Requeued flit 22308
Requeued flit 32472
Requeued flit 24080
Requeued flit 14600
Requeued flit 18823
Requeued flit 32019
Requeued flit 17977
Requeued flit 21862
Requeued flit 15297
Requeued flit 26509
Requeued flit 32589
Requeued flit 21946
Requeued flit 23947
Requeued flit 20662
Requeued flit 32343
Requeued flit 18412
Requeued flit 31165
Requeued flit 26145
Requeued flit 23640
Requeued flit 23860
Requeued flit 13660
Requeued flit 23847
Requeued flit 17395
Requeued flit 24136
Requeued flit 18371
Requeued flit 29167
Requeued flit 13724
Requeued flit 32610
Requeued flit 15370
Requeued flit 22083
Requeued flit 18077
Requeued flit 24397
Requeued flit 32479
Requeued flit 31511
Requeued flit 25821
Requeued flit 25185
Requeued flit 30518
Requeued flit 32876
Requeued flit 24989
Requeued flit 30601
Requeued flit 25418
Requeued flit 13733
Requeued flit 23488
Requeued flit 19269
Requeued flit 29193
Requeued flit 24011
Requeued flit 12674
Requeued flit 17239
Requeued flit 15319
Requeued flit 16677
Requeued flit 20293
Requeued flit 17772
Requeued flit 24022
Requeued flit 19137
Requeued flit 24618
Requeued flit 30099
Requeued flit 27503
Requeued flit 26309
Requeued flit 30937
Requeued flit 11993
Requeued flit 19326
Requeued flit 18683
Requeued flit 22182
Requeued flit 22877
Requeued flit 14133
Requeued flit 25987
Requeued flit 17358
Requeued flit 18215
Requeued flit 14499
Requeued flit 19132
Requeued flit 14473
Requeued flit 25999
Requeued flit 13175
Requeued flit 17254
Requeued flit 26797
Requeued flit 17777
Requeued flit 29677
Requeued flit 33286
Requeued flit 17693
Requeued flit 33157
Requeued flit 24438
Requeued flit 18546
Requeued flit 19155
Requeued flit 21322
Requeued flit 18686
Requeued flit 20935
Requeued flit 14681
Requeued flit 25957
Requeued flit 15181
Requeued flit 33294
Requeued flit 33359
Requeued flit 15086
Requeued flit 30268
Requeued flit 23996
Requeued flit 8363
Requeued flit 32888
Requeued flit 14359
Requeued flit 17709
Requeued flit 27171
Requeued flit 33412
Requeued flit 12749
Requeued flit 14121
Requeued flit 24554
Requeued flit 21302
Requeued flit 33492
Requeued flit 15283
Requeued flit 25640
Requeued flit 22511
Requeued flit 15896
Requeued flit 25947
Requeued flit 17299
Requeued flit 24848
Requeued flit 24970
Requeued flit 18120
Requeued flit 33519
Requeued flit 31371
Requeued flit 27082
Requeued flit 33624
Requeued flit 29097
Requeued flit 25553
Requeued flit 33644
Requeued flit 12908
Requeued flit 15461
Requeued flit 28014
Requeued flit 25644
Requeued flit 18750
Requeued flit 27177
Requeued flit 25234
Requeued flit 16835
Requeued flit 25784
Requeued flit 19065
Requeued flit 13693
Requeued flit 25450
Requeued flit 33815
Requeued flit 13680
Requeued flit 11601
Requeued flit 23948
Requeued flit 31360
Requeued flit 14570
Requeued flit 24856
Requeued flit 19199
Requeued flit 25873
Requeued flit 12956
Requeued flit 18778
Requeued flit 25886
Requeued flit 33871
Requeued flit 21965
Requeued flit 27377
Requeued flit 22737
Requeued flit 33809
Requeued flit 26474
Requeued flit 29536
Requeued flit 26498
Requeued flit 30416
Requeued flit 23533
Requeued flit 19489
Requeued flit 29268
Requeued flit 19258
Requeued flit 15757
Requeued flit 33439
Requeued flit 29029
Requeued flit 27196
Requeued flit 29439
Requeued flit 22901
Requeued flit 19621
Requeued flit 19058
Requeued flit 27671
Requeued flit 23353
Requeued flit 34059
Requeued flit 24601
Requeued flit 26820
Requeued flit 17513
Requeued flit 13483
Requeued flit 30511
Requeued flit 14980
Requeued flit 24697
Requeued flit 25667
Requeued flit 34146
Requeued flit 24741
Requeued flit 15048
Requeued flit 18036
Requeued flit 17980
Requeued flit 18120
Requeued flit 14367
Requeued flit 34165
Requeued flit 19330
Requeued flit 26148
Requeued flit 26653
Requeued flit 32571
Requeued flit 13584
Requeued flit 25529
Requeued flit 17764
Requeued flit 26617
Requeued flit 14063
Requeued flit 31924
Requeued flit 34116
Requeued flit 26128
Requeued flit 31582
Requeued flit 19436
Requeued flit 25465
Requeued flit 29536
Requeued flit 12916
Requeued flit 23634
Requeued flit 12848
Requeued flit 33958
Requeued flit 31952
Requeued flit 23974
Requeued flit 20739
Requeued flit 23811
Requeued flit 25434
Requeued flit 18391
Requeued flit 30978
Requeued flit 10403
Requeued flit 17823
Requeued flit 30431
Requeued flit 20594
Requeued flit 28750
Requeued flit 34515
Requeued flit 26480
Requeued flit 28113
Requeued flit 27037
Requeued flit 10190
Requeued flit 20429
Requeued flit 20929
Requeued flit 30908
Requeued flit 34501
Requeued flit 34556
Requeued flit 22387
Requeued flit 21371
Requeued flit 8890
Requeued flit 13090
Requeued flit 9334
Requeued flit 27772
Requeued flit 24001
Requeued flit 15261
Requeued flit 25995
Requeued flit 29439
Requeued flit 19333
Requeued flit 32898
Requeued flit 13430
Requeued flit 14492
Requeued flit 25977
Requeued flit 20897
Requeued flit 34683
Requeued flit 18248
Requeued flit 33780
Requeued flit 31568
Requeued flit 25824
Requeued flit 34507
Requeued flit 23726
Requeued flit 15770
Requeued flit 23586
Requeued flit 23993
Requeued flit 19963
Requeued flit 15586
Requeued flit 14941
Requeued flit 19364
Requeued flit 34737
Requeued flit 27121
Requeued flit 27704
Requeued flit 31087
Requeued flit 26926
Requeued flit 13545
Requeued flit 32646
Requeued flit 31574
Requeued flit 34661
Requeued flit 26375
Requeued flit 20732
Requeued flit 23546
Requeued flit 21937
Requeued flit 26459
Requeued flit 34501
Requeued flit 12720
Requeued flit 26644
Requeued flit 19708
Requeued flit 24805
Requeued flit 26730
Requeued flit 34767
Requeued flit 13194
Requeued flit 34671
Requeued flit 26380
Requeued flit 17914
Requeued flit 34449
Requeued flit 15435
Requeued flit 26164
Requeued flit 19398
Requeued flit 35063
Requeued flit 28050
Requeued flit 25830
Requeued flit 19494
Requeued flit 34116
Requeued flit 31629
Requeued flit 18890
Requeued flit 28125
Requeued flit 17422
Requeued flit 32955
Requeued flit 14427
Requeued flit 31622
Requeued flit 34610
Requeued flit 34768
Requeued flit 12850
Requeued flit 14200
Requeued flit 18826
Requeued flit 26787
Requeued flit 18165
Requeued flit 18274
Requeued flit 23364
Requeued flit 21139
Requeued flit 35233
Requeued flit 26903
Requeued flit 30229
Requeued flit 27745
Requeued flit 34577
Requeued flit 12779
Requeued flit 16496
Requeued flit 33248
Requeued flit 21372
Requeued flit 27195
Requeued flit 10052
Requeued flit 25913
Requeued flit 29186
Requeued flit 34611
Requeued flit 35423
Requeued flit 18859
Requeued flit 25860
Requeued flit 27118
Requeued flit 35513
Requeued flit 29062
Requeued flit 27015
Requeued flit 16257
Requeued flit 23581
Requeued flit 35605
Requeued flit 11319
Requeued flit 28544
Requeued flit 25407
Requeued flit 35416
Requeued flit 15331
Requeued flit 35374
Requeued flit 28471
Requeued flit 35709
Requeued flit 26371
Requeued flit 21140
Requeued flit 20473
Requeued flit 28696
Requeued flit 19151
Requeued flit 28229
Requeued flit 25184
Requeued flit 31540
Requeued flit 25711
Requeued flit 27276
Requeued flit 14783
Requeued flit 11026
Requeued flit 16491
Requeued flit 25494
Requeued flit 26585
Requeued flit 19140
Requeued flit 27328
Requeued flit 14984
Requeued flit 18990
Requeued flit 35876
Requeued flit 14874
Requeued flit 27286
Requeued flit 14678
Requeued flit 24651
Requeued flit 15502
Requeued flit 28710
Requeued flit 34884
Requeued flit 25325
Requeued flit 35862
Requeued flit 22078
Requeued flit 28737
Requeued flit 20271
Requeued flit 21143
Requeued flit 26705
Requeued flit 21561
Requeued flit 25704
Requeued flit 18709
Requeued flit 19248
Requeued flit 25868
Requeued flit 14757
Requeued flit 35254
Requeued flit 21608
Requeued flit 36127
Requeued flit 21011
Requeued flit 20450
Requeued flit 36033
Requeued flit 35757
Requeued flit 35978
Requeued flit 27544
Requeued flit 32627
Requeued flit 28104
Requeued flit 10160
Requeued flit 36216
Requeued flit 26760
Requeued flit 28414
Requeued flit 19685
Requeued flit 27392
Requeued flit 11019
Requeued flit 11615
Requeued flit 22782
Requeued flit 25042
Requeued flit 26910
Requeued flit 20794
Requeued flit 23035
Requeued flit 30342
Requeued flit 27764
Requeued flit 32653
Requeued flit 35902
Requeued flit 29083
Requeued flit 33811
Requeued flit 24408
Requeued flit 25908
Requeued flit 14552
Requeued flit 24115
Requeued flit 33014
Requeued flit 20268
Requeued flit 16109
Requeued flit 16781
Requeued flit 30320
Requeued flit 19983
Requeued flit 27629
Requeued flit 27090
Requeued flit 18779
Requeued flit 19251
Requeued flit 26190
Requeued flit 27766
Requeued flit 16946
Requeued flit 26860
Requeued flit 36506
Requeued flit 20693
Requeued flit 27967
Requeued flit 26236
Requeued flit 32804
Requeued flit 15191
Requeued flit 35698
Requeued flit 33855
Requeued flit 27089
Requeued flit 25897
Requeued flit 12652
Requeued flit 12015
Requeued flit 28873
Requeued flit 24474
Requeued flit 30132
Requeued flit 9430
Requeued flit 20113
Requeued flit 27556
Requeued flit 20609
Requeued flit 16782
Requeued flit 27724
Requeued flit 20463
Requeued flit 29609
Requeued flit 21742
Requeued flit 25929
Requeued flit 28617
Requeued flit 9940
Requeued flit 33957
Requeued flit 22692
Requeued flit 36609
Requeued flit 25539
Requeued flit 34648
Requeued flit 19782
Requeued flit 36304
Requeued flit 22846
Requeued flit 36787
Requeued flit 16939
Requeued flit 17000
Requeued flit 20248
Requeued flit 21217
Requeued flit 36680
Requeued flit 36758
Requeued flit 36702
Requeued flit 28009
Requeued flit 36285
Requeued flit 26690
Requeued flit 21225
Requeued flit 28044
Requeued flit 23056
Requeued flit 26131
Requeued flit 27535
Requeued flit 33840
Requeued flit 27218
Requeued flit 36980
[...]
Requeued flit 185222
Requeued flit 291770
Requeued flit 217369
Requeued flit 334270
Requeued flit 355687
Requeued flit 277881
Requeued flit 252735
Requeued flit 356675
Requeued flit 315082
Requeued flit 331213
Requeued flit 182642
Requeued flit 326309
Requeued flit 335294
Requeued flit 322971
Requeued flit 295745
Requeued flit 357240
Requeued flit 353935
Requeued flit 184455
Requeued flit 296908
Requeued flit 353864
Requeued flit 336177
Requeued flit 326898
Requeued flit 228921
Requeued flit 254910
Requeued flit 354460
Requeued flit 327099
Requeued flit 298724
Requeued flit 295460
Requeued flit 299678
Requeued flit 318355
Requeued flit 352871
Requeued flit 194493
Requeued flit 174119
Requeued flit 324163
Requeued flit 184796
Requeued flit 348886
Requeued flit 345084
Requeued flit 355664
Requeued flit 330397
Requeued flit 171517
Requeued flit 320412
Requeued flit 333132
Requeued flit 227032
Requeued flit 260992
Requeued flit 334689
Requeued flit 176491
Requeued flit 313984
Requeued flit 321351
Requeued flit 181813
Requeued flit 173605
Requeued flit 352676
Requeued flit 327401
Requeued flit 329447
Requeued flit 183126
Requeued flit 352734
Requeued flit 352759
Requeued flit 348143
Requeued flit 171906
Requeued flit 338165
Requeued flit 340951
Requeued flit 353601
Requeued flit 223765
Requeued flit 298236
Requeued flit 349260
Requeued flit 357692
Requeued flit 355838
Requeued flit 184366
Requeued flit 332557
Requeued flit 317207
Requeued flit 326631
Requeued flit 259778
Requeued flit 344872
Requeued flit 332540
Requeued flit 298784
Requeued flit 350738
Requeued flit 260727
Requeued flit 339053
Requeued flit 357004
Requeued flit 327674
Requeued flit 356767
Requeued flit 258810
Requeued flit 353077
Requeued flit 299047
Requeued flit 352761
Requeued flit 224178
Requeued flit 349936
Requeued flit 335294
Requeued flit 309269
Requeued flit 286896
Requeued flit 327189
Requeued flit 265001
Requeued flit 353569
Requeued flit 238840
Requeued flit 355377
Requeued flit 339628
Requeued flit 251995
Requeued flit 338524
Requeued flit 227027
Requeued flit 322971
Requeued flit 347013
Requeued flit 337202
Requeued flit 231584
Requeued flit 184455
Requeued flit 353924
Requeued flit 264784
Requeued flit 263329
Requeued flit 298659
Requeued flit 313591
Requeued flit 232171
Requeued flit 269994
Requeued flit 298017
Requeued flit 232969
Requeued flit 270418
Requeued flit 300671
Requeued flit 294756
Requeued flit 352111
Requeued flit 298523
Requeued flit 354077
Requeued flit 359435
Requeued flit 354820
Requeued flit 242058
Requeued flit 353487
Requeued flit 334166
Requeued flit 354244
Requeued flit 354443
Requeued flit 174477
Requeued flit 176373
Requeued flit 222738
Requeued flit 360552
Requeued flit 340935
Requeued flit 346655
Requeued flit 175292
Requeued flit 229671
Requeued flit 308676
Requeued flit 234543
Requeued flit 327863
Requeued flit 290811
Requeued flit 315217
Requeued flit 327960
Requeued flit 299736
Requeued flit 219657
Requeued flit 327882
Requeued flit 185466
Requeued flit 351257
Requeued flit 343682
Requeued flit 340823
Requeued flit 264696
Requeued flit 289934
Requeued flit 238869
Requeued flit 218765
Requeued flit 177507
Requeued flit 338311
Requeued flit 342010
Requeued flit 348903
Requeued flit 229715
Requeued flit 319176
Requeued flit 231918
Requeued flit 238989
Requeued flit 350832
Requeued flit 353968
Requeued flit 349210
Requeued flit 296660
Requeued flit 327115
Requeued flit 351218
Requeued flit 330774
Requeued flit 334813
Requeued flit 338529
Requeued flit 353819
Requeued flit 353509
Requeued flit 300262
Requeued flit 313154
Requeued flit 356852
Requeued flit 300393
Requeued flit 353257
Requeued flit 207671
Requeued flit 298620
Requeued flit 337916
Requeued flit 356320
Requeued flit 334851
Requeued flit 181043
Requeued flit 360900
Requeued flit 314293
Requeued flit 361262
Requeued flit 358271
Requeued flit 237411
Requeued flit 219414
Requeued flit 339620
Requeued flit 294515
Requeued flit 344673
Requeued flit 240709
Requeued flit 314964
Requeued flit 290573
Requeued flit 332988
Requeued flit 222529
Requeued flit 353360
Requeued flit 296641
Requeued flit 352100
Requeued flit 222738
Requeued flit 327244
Requeued flit 322045
Requeued flit 353480
Requeued flit 278323
Requeued flit 323631
Requeued flit 353457
Requeued flit 345645
Requeued flit 167494
Requeued flit 186313
Requeued flit 291490
Requeued flit 314076
Requeued flit 266431
Requeued flit 220200
Requeued flit 337164
Requeued flit 201794
Requeued flit 313585
Requeued flit 354258
Requeued flit 234519
Requeued flit 299610
Requeued flit 353816
Requeued flit 267692
Requeued flit 290181
Requeued flit 329328
Requeued flit 332554
Requeued flit 358065
Requeued flit 329969
Requeued flit 326637
Requeued flit 236354
Requeued flit 339582
Requeued flit 332489
Requeued flit 345100
Requeued flit 296359
Requeued flit 313154
Requeued flit 341346
Requeued flit 255376
Requeued flit 177904
Requeued flit 262087
Requeued flit 320096
Requeued flit 353598
Requeued flit 347220
Requeued flit 359557
Requeued flit 316063
Requeued flit 266228
Requeued flit 353685
Requeued flit 330187
Requeued flit 189313
Requeued flit 352555
Requeued flit 226978
Requeued flit 217715
Requeued flit 182345
Requeued flit 239656
Requeued flit 329675
Requeued flit 335234
Requeued flit 345035
Requeued flit 305755
Requeued flit 353681
Requeued flit 238424
Requeued flit 329340
Requeued flit 298994
Requeued flit 235772
Requeued flit 344431
Requeued flit 288160
Requeued flit 339476
Requeued flit 227389
Requeued flit 199994
Requeued flit 177606
Requeued flit 333171
Requeued flit 240527
Requeued flit 335342
Requeued flit 171257
Requeued flit 352029
Requeued flit 336239
Requeued flit 237411
Requeued flit 360513
Requeued flit 356555
Requeued flit 298576
Requeued flit 331081
Requeued flit 224611
Requeued flit 263348
Requeued flit 282684
Requeued flit 350757
Requeued flit 284589
Requeued flit 353660
Requeued flit 301405
Requeued flit 171640
Requeued flit 184124
Requeued flit 281110
Requeued flit 294208
Requeued flit 186027
Requeued flit 206104
Requeued flit 188853
Requeued flit 325110
Requeued flit 358377
Requeued flit 225686
Requeued flit 362617
Requeued flit 359344
Requeued flit 357948
Requeued flit 340670
Requeued flit 289382
Requeued flit 356743
Requeued flit 353341
Requeued flit 355952
Requeued flit 177745
Requeued flit 181751
Requeued flit 367937
Requeued flit 293205
Requeued flit 220017
Requeued flit 301534
Requeued flit 221377
Requeued flit 338453
Requeued flit 334046
Requeued flit 217806
Requeued flit 361660
Requeued flit 306187
Requeued flit 353433
Requeued flit 353360
Requeued flit 332838
Requeued flit 297533
Requeued flit 360706
Requeued flit 337642
Requeued flit 311015
Requeued flit 335234
Requeued flit 257095
Requeued flit 348809
Requeued flit 324889
Requeued flit 319978
Requeued flit 255196
Requeued flit 285245
Requeued flit 300206
Requeued flit 361718
Requeued flit 331092
Requeued flit 233074
Requeued flit 297992
Requeued flit 301109
Requeued flit 358219
Requeued flit 312646
Requeued flit 351531
Requeued flit 301647
Requeued flit 229874
Requeued flit 266818
Requeued flit 349292
Requeued flit 341104
Requeued flit 330072
Requeued flit 327213
Requeued flit 338094
Requeued flit 353779
Requeued flit 290273
Requeued flit 239324
Requeued flit 264409
Requeued flit 323525
Requeued flit 167847
Requeued flit 317585
Requeued flit 285940
Requeued flit 263808
Requeued flit 339361
Requeued flit 300775
Requeued flit 264288
Requeued flit 360547
Requeued flit 354465
Requeued flit 354637
Requeued flit 360458
Requeued flit 326582
Requeued flit 323594
Requeued flit 258634
Requeued flit 289456
Requeued flit 178195
Requeued flit 339798
Requeued flit 178152
Requeued flit 195946
Requeued flit 323480
Requeued flit 294700
Requeued flit 179493
Requeued flit 214460
Requeued flit 290417
Requeued flit 328759
Requeued flit 195495
Requeued flit 183644
Requeued flit 253981
Requeued flit 265829
Requeued flit 327565
Requeued flit 348078
Requeued flit 248984
Requeued flit 281803
Requeued flit 266875
Requeued flit 183524
Requeued flit 354091
Requeued flit 178836
Requeued flit 261971
Requeued flit 357081
Requeued flit 359648
Requeued flit 180890
Requeued flit 325052
Requeued flit 339437
Requeued flit 308705
Requeued flit 301730
Requeued flit 297549
Requeued flit 354637
Requeued flit 291814
Requeued flit 338947
Requeued flit 301457
Requeued flit 339436
Requeued flit 347076
Requeued flit 299770
Requeued flit 354437
Requeued flit 340554
Requeued flit 331436
Requeued flit 333039
Requeued flit 259274
Requeued flit 338159
Requeued flit 225411
Requeued flit 357763
Requeued flit 300765
Requeued flit 355916
Requeued flit 346927
Requeued flit 166865
Requeued flit 354763
Requeued flit 300195
Requeued flit 359776
Requeued flit 336067
Requeued flit 352955
Requeued flit 342390
Requeued flit 357659
Requeued flit 357111
Requeued flit 344709
Requeued flit 355928
Requeued flit 345284
Requeued flit 358267
Requeued flit 340002
Requeued flit 330035
Requeued flit 179852
Requeued flit 313786
Requeued flit 321640
Requeued flit 361416
Requeued flit 324362
Requeued flit 174418
Requeued flit 181398
Requeued flit 341169
Requeued flit 297843
Requeued flit 325886
Requeued flit 358010
Requeued flit 287060
Requeued flit 295270
Requeued flit 361673
Requeued flit 359746
Requeued flit 258117
Requeued flit 281803
Requeued flit 360485
Requeued flit 318378
Requeued flit 232913
Requeued flit 346262
Requeued flit 340415
Requeued flit 348084
Requeued flit 344482
Requeued flit 357272
Requeued flit 289081
Requeued flit 344709
Requeued flit 355021
Requeued flit 235710
Requeued flit 180198
Requeued flit 181205
Requeued flit 343868
Requeued flit 236206
Requeued flit 326198
Requeued flit 358182
Requeued flit 354776
Requeued flit 224600
Requeued flit 220319
Requeued flit 353447
Requeued flit 297309
Requeued flit 331339
Requeued flit 354525
Requeued flit 356241
Requeued flit 360713
Requeued flit 298161
Requeued flit 322119
Requeued flit 358706
Requeued flit 362265
Requeued flit 340488
Requeued flit 201210
Requeued flit 332416
Requeued flit 353141
Requeued flit 325153
Requeued flit 258651
Requeued flit 347231
Requeued flit 315985
Requeued flit 331743
Requeued flit 351013
Requeued flit 338553
Requeued flit 335195
Requeued flit 301773
Requeued flit 353286
Requeued flit 324892
Requeued flit 355333
Requeued flit 256878
Requeued flit 295946
Requeued flit 345252
Requeued flit 298851
Requeued flit 352643
Requeued flit 345786
Requeued flit 177511
Requeued flit 316059
Requeued flit 171920
Requeued flit 341261
Requeued flit 341309
Requeued flit 173896
Requeued flit 191018
Requeued flit 178387
Requeued flit 178748
Requeued flit 321640
Requeued flit 350277
Requeued flit 189156
Requeued flit 341473
Requeued flit 341506
Requeued flit 355727
Requeued flit 343552
Requeued flit 346918
Requeued flit 358106
Requeued flit 348470
Requeued flit 285878
Requeued flit 338367
Requeued flit 357855
Requeued flit 258600
Requeued flit 194306
Requeued flit 340612
Requeued flit 329747
Requeued flit 341285
Requeued flit 335575
Requeued flit 314524
Requeued flit 299397
Requeued flit 332524
Requeued flit 298289
Requeued flit 302166
Requeued flit 222265
Requeued flit 240786
Requeued flit 260110
Requeued flit 341185
Requeued flit 340117
Requeued flit 192891
Requeued flit 302833
Requeued flit 175631
Requeued flit 219718
Requeued flit 337447
Requeued flit 368400
Requeued flit 359609
Requeued flit 342271
Requeued flit 341295
Requeued flit 304217
Requeued flit 322510
Requeued flit 358311
Requeued flit 327006
Requeued flit 332830
Requeued flit 226234
Requeued flit 329471
Requeued flit 355923
Requeued flit 354421
Requeued flit 355655
Requeued flit 334029
Requeued flit 342954
Requeued flit 316759
Requeued flit 355950
Requeued flit 226152
Requeued flit 347941
Requeued flit 292777
Requeued flit 228565
Requeued flit 329929
Requeued flit 296004
Requeued flit 243291
Requeued flit 341389
Requeued flit 348511
Requeued flit 337554
Requeued flit 335116
Requeued flit 209571
Requeued flit 302849
Requeued flit 201739
Requeued flit 285661
Requeued flit 329506
Requeued flit 301735
Requeued flit 251094
Requeued flit 291183
Requeued flit 221914
Requeued flit 293701
Requeued flit 346269
Requeued flit 187403
Requeued flit 330853
Requeued flit 357867
Requeued flit 298942
Requeued flit 346206
Requeued flit 356991
Requeued flit 302909
Requeued flit 356752
Requeued flit 354570
Requeued flit 356923
Requeued flit 331643
Requeued flit 359075
Requeued flit 187101
Requeued flit 179021
Requeued flit 322117
Requeued flit 354270
Requeued flit 295336
Requeued flit 359223
Requeued flit 355144
Requeued flit 355494
Requeued flit 192985
Requeued flit 341630
Requeued flit 359307
Requeued flit 259726
Requeued flit 252702
Requeued flit 354751
Requeued flit 325701
Requeued flit 330942
Requeued flit 287630
Requeued flit 303974
Requeued flit 337947
Requeued flit 184106
Requeued flit 241479
Requeued flit 290940
Requeued flit 242928
Requeued flit 205331
Requeued flit 348633
Requeued flit 267900
Requeued flit 197459
Requeued flit 341449
Requeued flit 333558
Requeued flit 292945
Requeued flit 360997
Requeued flit 344958
Requeued flit 356098
Requeued flit 180555
Requeued flit 354962
Requeued flit 344366
Requeued flit 180836
Requeued flit 199505
Requeued flit 284513
Requeued flit 322061
Requeued flit 175619
Requeued flit 368860
Requeued flit 184009
Requeued flit 329128
Requeued flit 286513
Requeued flit 301962
Requeued flit 358774
Requeued flit 354773
Requeued flit 354147
Requeued flit 345620
Requeued flit 359330
Requeued flit 236057
Requeued flit 331183
Requeued flit 329515
Requeued flit 354157
Requeued flit 204520
Requeued flit 335025
Requeued flit 344922
Requeued flit 300016
Requeued flit 302771
Requeued flit 302272
Requeued flit 190389
Requeued flit 339641
Requeued flit 284701
Requeued flit 347968
Requeued flit 368041
Requeued flit 338907
Requeued flit 359847
Requeued flit 259898
Requeued flit 264084
Requeued flit 332030
Requeued flit 346733
Requeued flit 275975
Requeued flit 347164
Requeued flit 297830
Requeued flit 336110
Requeued flit 300955
Requeued flit 294147
Requeued flit 294775
Requeued flit 357145
Requeued flit 302408
Requeued flit 339696
Requeued flit 288285
Requeued flit 182443
Requeued flit 337331
Requeued flit 226443
Requeued flit 175966
Requeued flit 355305
Requeued flit 358457
Requeued flit 288632
Requeued flit 223823
Requeued flit 230624
Requeued flit 324518
Requeued flit 302351
Requeued flit 357059
Requeued flit 333067
Requeued flit 329128
Requeued flit 260556
Requeued flit 271709
Requeued flit 354209
Requeued flit 235645
Requeued flit 356750
Requeued flit 357382
Requeued flit 347342
Requeued flit 271516
Requeued flit 358530
Requeued flit 292514
Requeued flit 302550
Requeued flit 341564
Requeued flit 356188
Requeued flit 301575
Requeued flit 235356
Requeued flit 355626
Requeued flit 343056
Requeued flit 314572
Requeued flit 360899
Requeued flit 192914
Requeued flit 347753
Requeued flit 220778
Requeued flit 376107
Requeued flit 359847
Requeued flit 304296
Requeued flit 332339
Requeued flit 339986
Requeued flit 355122
Requeued flit 355869
Requeued flit 334834
Requeued flit 303312
Requeued flit 358572
Requeued flit 344224
Requeued flit 177140
Requeued flit 299390
Requeued flit 355723
Requeued flit 357706
Requeued flit 348563
Requeued flit 279765
Requeued flit 303904
Requeued flit 200299
Requeued flit 191571
Requeued flit 358178
Requeued flit 330781
Requeued flit 327837
Requeued flit 309874
Requeued flit 340343
Requeued flit 244530
Requeued flit 316834
Requeued flit 330767
Requeued flit 178525
Requeued flit 349521
Requeued flit 339925
Requeued flit 201680
Requeued flit 334206
Requeued flit 356530
Requeued flit 356149
Requeued flit 342100
Requeued flit 287351
Requeued flit 241951
Requeued flit 353867
Requeued flit 268235
Requeued flit 360185
Requeued flit 225701
Requeued flit 359112
Requeued flit 258661
Requeued flit 334470
Requeued flit 319842
Requeued flit 174244
Requeued flit 349070
Requeued flit 334490
Requeued flit 339823
Requeued flit 267428
Requeued flit 347945
Requeued flit 360030
Requeued flit 336921
Requeued flit 267189
Requeued flit 299041
Requeued flit 361617
Requeued flit 260687
Requeued flit 333470
Requeued flit 289315
Requeued flit 231077
Requeued flit 357236
Requeued flit 182740
Requeued flit 241491
Requeued flit 323660
Requeued flit 344276
Requeued flit 339688
Requeued flit 356854
Requeued flit 299997
Requeued flit 313986
Requeued flit 290467
Requeued flit 343610
Requeued flit 306156
Requeued flit 294863
Requeued flit 362852
Requeued flit 184763
Requeued flit 254008
Requeued flit 350145
Requeued flit 235418
Requeued flit 360527
Requeued flit 303520
Requeued flit 342378
Requeued flit 362045
Requeued flit 170130
Requeued flit 303273
Requeued flit 199029
Requeued flit 360030
Requeued flit 340039
Requeued flit 350837
Requeued flit 314072
Requeued flit 341360
Requeued flit 342580
Requeued flit 301578
Requeued flit 168881
Requeued flit 302550
Requeued flit 329117
Requeued flit 194005
Requeued flit 358014
Requeued flit 360751
Requeued flit 273130
Requeued flit 357210
Requeued flit 181393
Requeued flit 259161
Requeued flit 358840
Requeued flit 250260
Requeued flit 356302
Requeued flit 360480
Requeued flit 337549
Requeued flit 350896
Requeued flit 334347
Requeued flit 268544
Requeued flit 177274
Requeued flit 329445
Requeued flit 356271
Requeued flit 185254
Requeued flit 320250
Requeued flit 325147
Requeued flit 351549
Requeued flit 359040
Requeued flit 357631
Requeued flit 237823
Requeued flit 329493
Requeued flit 331870
Requeued flit 334066
Requeued flit 204418
Requeued flit 352695
Requeued flit 305385
Requeued flit 243312
Requeued flit 363689
Requeued flit 223045
Requeued flit 341217
Requeued flit 361857
Requeued flit 341360
Requeued flit 322422
Requeued flit 357468
Requeued flit 241240
Requeued flit 339571
Requeued flit 334383
Requeued flit 343415
Requeued flit 242212
Requeued flit 336976
Requeued flit 292626
Requeued flit 303567
Requeued flit 322995
Requeued flit 356942
Requeued flit 355774
Requeued flit 244312
Requeued flit 356595
Requeued flit 303972
Requeued flit 357013
Requeued flit 340541
Requeued flit 329810
Requeued flit 262534
Requeued flit 328171
Requeued flit 363141
Requeued flit 296013
Requeued flit 302644
Requeued flit 335432
Requeued flit 337049
Requeued flit 301033
Requeued flit 357572
Requeued flit 352323
Requeued flit 299807
Requeued flit 331680
Requeued flit 323177
Requeued flit 354902
Requeued flit 300416
Requeued flit 292013
Requeued flit 252911
Requeued flit 355365
Requeued flit 356854
Requeued flit 236682
Requeued flit 342223
Requeued flit 230226
Requeued flit 339068
Requeued flit 334728
Requeued flit 323295
Requeued flit 316244
Requeued flit 359393
Requeued flit 304901
Requeued flit 193021
Requeued flit 239947
Requeued flit 361096
Requeued flit 360212
Requeued flit 315326
Requeued flit 343890
Requeued flit 337445
Requeued flit 342967
Requeued flit 190247
Requeued flit 288236
Requeued flit 315068
Requeued flit 357881
Class 0:
Packet latency average = 1660.44
	minimum = 5
	maximum = 6999
Network latency average = 1461.86
	minimum = 5
	maximum = 6972
Slowest packet = 157328
Flit latency average = 1461.86
	minimum = 5
	maximum = 6972
Slowest flit = 159068
Fragmentation average = 0
	minimum = 0
	maximum = 0
Injected packet rate average = 0.606653
	minimum = 0.4193 (at node 9)
	maximum = 0.8588 (at node 60)
Accepted packet rate average = 0.486866
	minimum = 0.4645 (at node 21)
	maximum = 0.5032 (at node 39)
Injected flit rate average = 0.606653
	minimum = 0.4193 (at node 9)
	maximum = 0.8588 (at node 60)
Accepted flit rate average= 0.486866
	minimum = 0.4645 (at node 21)
	maximum = 0.5032 (at node 39)
Injected packet length average = 1
Accepted packet length average = 1
Total in-flight flits = 76695 (0 measured)
latency change    = 1
throughput change = 1
Average latency for class 0 exceeded 500 cycles. Aborting simulation.
Too many sample periods needed to converge
Simulation unstable, ending ...
Total run time 90.3217
