BEGIN Configuration File: examples/ecc_mesh88_config_0_0.900_link_1
// $Id$

// Copyright (c) 2007-2015, Trustees of The Leland Stanford Junior University
// All rights reserved.
//
// Redistribution and use in source and binary forms, with or without
// modification, are permitted provided that the following conditions are met:
//
// Redistributions of source code must retain the above copyright notice, this
// list of conditions and the following disclaimer.
// Redistributions in binary form must reproduce the above copyright notice,
// this list of conditions and the following disclaimer in the documentation
// and/or other materials provided with the distribution.
//
// THIS SOFTWARE IS PROVIDED BY THE COPYRIGHT HOLDERS AND CONTRIBUTORS "AS IS"
// AND ANY EXPRESS OR IMPLIED WARRANTIES, INCLUDING, BUT NOT LIMITED TO, THE
// IMPLIED WARRANTIES OF MERCHANTABILITY AND FITNESS FOR A PARTICULAR PURPOSE
// ARE DISCLAIMED. IN NO EVENT SHALL THE COPYRIGHT OWNER OR CONTRIBUTORS BE
// LIABLE FOR ANY DIRECT, INDIRECT, INCIDENTAL, SPECIAL, EXEMPLARY, OR
// CONSEQUENTIAL DAMAGES (INCLUDING, BUT NOT LIMITED TO, PROCUREMENT OF
// SUBSTITUTE GOODS OR SERVICES; LOSS OF USE, DATA, OR PROFITS; OR BUSINESS
// INTERRUPTION) HOWEVER CAUSED AND ON ANY THEORY OF LIABILITY, WHETHER IN
// CONTRACT, STRICT LIABILITY, OR TORT (INCLUDING NEGLIGENCE OR OTHERWISE)
// ARISING IN ANY WAY OUT OF THE USE OF THIS SOFTWARE, EVEN IF ADVISED OF THE
// POSSIBILITY OF SUCH DAMAGE.

// Dragonfly
//




vc_buf_size = 256;


wait_for_tail_credit = 0;

//
// Router architecture
//
vc_allocator = separable_input_first; 
sw_allocator = separable_input_first;
alloc_iters  = 1;

credit_delay   = 2;
routing_delay  = 0;
vc_alloc_delay = 1;
sw_alloc_delay = 1;
st_final_delay = 1;

input_speedup     = 1;
output_speedup    = 1;
internal_speedup  = 2.0;


warmup_periods = 3;
sim_count          = 1;

sample_period  = 10000;  


routing_function = dor;
num_vcs     = 2;

priority = none;
traffic       = uniform; 

injection_rate = 0.9;
packet_size = 1;
injection_rate_uses_flits=1;

topology = mesh;

k  = 8;
n  = 2;

fer = 1;
ecc = link;
correctable = 0;

watch_out=-;
watch_file = watch.txt;

ecc = link;

stats_out = examples/ecc_mesh88_config_0_0.900_link_1.m;

END Configuration File: examples/ecc_mesh88_config_0_0.900_link_1
Requeued flit 67
Requeued flit 19
Requeued flit 20
Requeued flit 37
Requeued flit 38
Requeued flit 39
Requeued flit 45
Requeued flit 46
Requeued flit 52
Requeued flit 57
Requeued flit 5
Requeued flit 8
Requeued flit 71
Requeued flit 79
Requeued flit 87
Requeued flit 89
Requeued flit 99
Requeued flit 169
Requeued flit 118
Requeued flit 122
Requeued flit 10
Requeued flit 12
Requeued flit 13
Requeued flit 129
Requeued flit 132
Requeued flit 136
Requeued flit 196
Requeued flit 83
Requeued flit 146
Requeued flit 154
Requeued flit 159
Requeued flit 55
Requeued flit 0
Requeued flit 63
Requeued flit 135
Requeued flit 24
Requeued flit 141
Requeued flit 27
Requeued flit 29
Requeued flit 213
Requeued flit 98
Requeued flit 166
Requeued flit 235
Requeued flit 297
Requeued flit 251
Requeued flit 254
Requeued flit 205
Requeued flit 274
Requeued flit 218
Requeued flit 113
Requeued flit 282
Requeued flit 296
Requeued flit 126
Requeued flit 76
Requeued flit 259
Requeued flit 318
Requeued flit 379
Requeued flit 323
Requeued flit 270
Requeued flit 158
Requeued flit 273
Requeued flit 342
Requeued flit 291
Requeued flit 58
Requeued flit 178
Requeued flit 354
Requeued flit 307
Requeued flit 250
Requeued flit 210
Requeued flit 388
Requeued flit 276
Requeued flit 284
Requeued flit 228
Requeued flit 347
Requeued flit 292
Requeued flit 247
Requeued flit 311
Requeued flit 370
Requeued flit 255
Requeued flit 81
Requeued flit 151
Requeued flit 325
Requeued flit 452
Requeued flit 454
Requeued flit 402
Requeued flit 470
Requeued flit 130
Requeued flit 19
Requeued flit 425
Requeued flit 487
Requeued flit 488
Requeued flit 327
Requeued flit 279
Requeued flit 451
Requeued flit 411
Requeued flit 465
Requeued flit 127
Requeued flit 12
Requeued flit 474
Requeued flit 359
Requeued flit 542
Requeued flit 373
Requeued flit 545
Requeued flit 209
Requeued flit 96
Requeued flit 159
Requeued flit 506
Requeued flit 338
Requeued flit 453
Requeued flit 458
Requeued flit 176
Requeued flit 521
Requeued flit 68
Requeued flit 125
Requeued flit 418
Requeued flit 476
Requeued flit 77
Requeued flit 544
Requeued flit 186
Requeued flit 261
Requeued flit 611
Requeued flit 383
Requeued flit 33
Requeued flit 558
Requeued flit 224
Requeued flit 110
Requeued flit 107
Requeued flit 512
Requeued flit 6
Requeued flit 528
Requeued flit 531
Requeued flit 21
Requeued flit 301
Requeued flit 200
Requeued flit 606
Requeued flit 430
Requeued flit 321
Requeued flit 94
Requeued flit 631
Requeued flit 633
Requeued flit 352
Requeued flit 643
Requeued flit 121
Requeued flit 358
Requeued flit 73
Requeued flit 179
Requeued flit 364
Requeued flit 482
Requeued flit 366
Requeued flit 135
Requeued flit 608
Requeued flit 375
Requeued flit 323
Requeued flit 51
Requeued flit 504
Requeued flit 676
Requeued flit 792
Requeued flit 682
Requeued flit 570
Requeued flit 638
Requeued flit 759
Requeued flit 760
Requeued flit 700
Requeued flit 590
Requeued flit 764
Requeued flit 539
Requeued flit 717
Requeued flit 668
Requeued flit 491
Requeued flit 615
Requeued flit 560
Requeued flit 734
Requeued flit 624
Requeued flit 571
Requeued flit 746
Requeued flit 292
Requeued flit 298
Requeued flit 822
Requeued flit 880
Requeued flit 535
Requeued flit 595
Requeued flit 830
Requeued flit 543
Requeued flit 549
Requeued flit 43
Requeued flit 630
Requeued flit 623
Requeued flit 851
Requeued flit 637
Requeued flit 865
Requeued flit 931
Requeued flit 651
Requeued flit 768
Requeued flit 712
Requeued flit 249
Requeued flit 946
Requeued flit 334
Requeued flit 716
Requeued flit 832
Requeued flit 724
Requeued flit 339
Requeued flit 841
Requeued flit 903
Requeued flit 388
Requeued flit 563
Requeued flit 794
Requeued flit 971
Requeued flit 452
Requeued flit 922
Requeued flit 356
Requeued flit 117
Requeued flit 363
Requeued flit 212
Requeued flit 710
Requeued flit 657
Requeued flit 777
Requeued flit 185
Requeued flit 785
Requeued flit 391
Requeued flit 502
Requeued flit 459
Requeued flit 1026
Requeued flit 403
Requeued flit 802
Requeued flit 975
Requeued flit 348
Requeued flit 181
Requeued flit 1049
Requeued flit 819
Requeued flit 866
Requeued flit 652
Requeued flit 537
Requeued flit 999
Requeued flit 776
Requeued flit 1010
Requeued flit 321
Requeued flit 958
Requeued flit 423
Requeued flit 728
Requeued flit 1079
Requeued flit 684
Requeued flit 335
Requeued flit 1089
Requeued flit 808
Requeued flit 582
Requeued flit 639
Requeued flit 869
Requeued flit 697
Requeued flit 1052
Requeued flit 10
Requeued flit 61
Requeued flit 996
Requeued flit 605
Requeued flit 376
Requeued flit 727
Requeued flit 1072
Requeued flit 783
Requeued flit 431
Requeued flit 147
Requeued flit 839
Requeued flit 441
Requeued flit 1085
Requeued flit 389
Requeued flit 505
Requeued flit 972
Requeued flit 507
Requeued flit 1093
Requeued flit 572
Requeued flit 344
Requeued flit 1162
Requeued flit 937
Requeued flit 596
Requeued flit 160
Requeued flit 133
Requeued flit 890
Requeued flit 468
Requeued flit 1007
Requeued flit 706
Requeued flit 1014
Requeued flit 222
Requeued flit 1134
Requeued flit 55
Requeued flit 788
Requeued flit 1137
Requeued flit 843
Requeued flit 1141
Requeued flit 432
Requeued flit 511
Requeued flit 853
Requeued flit 345
Requeued flit 634
Requeued flit 1157
Requeued flit 984
Requeued flit 1173
Requeued flit 419
Requeued flit 943
Requeued flit 827
Requeued flit 97
Requeued flit 780
Requeued flit 1132
Requeued flit 483
Requeued flit 429
Requeued flit 504
Requeued flit 393
Requeued flit 1025
Requeued flit 1041
Requeued flit 691
Requeued flit 1040
Requeued flit 980
Requeued flit 812
Requeued flit 865
Requeued flit 1044
Requeued flit 994
Requeued flit 180
Requeued flit 136
Requeued flit 1126
Requeued flit 952
Requeued flit 243
Requeued flit 104
Requeued flit 953
Requeued flit 499
Requeued flit 3
Requeued flit 489
Requeued flit 1253
Requeued flit 283
Requeued flit 908
Requeued flit 1214
Requeued flit 405
Requeued flit 751
Requeued flit 471
Requeued flit 650
Requeued flit 1059
Requeued flit 1297
Requeued flit 1001
Requeued flit 1301
Requeued flit 995
Requeued flit 327
Requeued flit 1310
Requeued flit 514
Requeued flit 1196
Requeued flit 388
Requeued flit 1088
Requeued flit 448
Requeued flit 1264
Requeued flit 1147
Requeued flit 800
Requeued flit 629
Requeued flit 801
Requeued flit 914
Requeued flit 1032
Requeued flit 750
Requeued flit 1278
Requeued flit 581
Requeued flit 465
Requeued flit 1045
Requeued flit 927
Requeued flit 1240
Requeued flit 1360
Requeued flit 896
Requeued flit 1245
Requeued flit 834
Requeued flit 662
Requeued flit 778
Requeued flit 1309
Requeued flit 379
Requeued flit 268
Requeued flit 669
Requeued flit 205
Requeued flit 622
Requeued flit 1202
Requeued flit 1260
Requeued flit 734
Requeued flit 442
Requeued flit 1325
Requeued flit 308
Requeued flit 1269
Requeued flit 1389
Requeued flit 1393
Requeued flit 176
Requeued flit 1455
Requeued flit 1167
Requeued flit 593
Requeued flit 1238
Requeued flit 1359
Requeued flit 1186
Requeued flit 1304
Requeued flit 1130
Requeued flit 1010
Requeued flit 1371
Requeued flit 1314
Requeued flit 901
Requeued flit 1256
Requeued flit 1494
Requeued flit 279
Requeued flit 143
Requeued flit 402
Requeued flit 1267
Requeued flit 400
Requeued flit 1327
Requeued flit 1273
Requeued flit 1095
Requeued flit 1335
Requeued flit 0
Requeued flit 1165
Requeued flit 867
Requeued flit 986
Requeued flit 1404
Requeued flit 642
Requeued flit 479
Requeued flit 33
Requeued flit 524
Requeued flit 1419
Requeued flit 485
Requeued flit 604
Requeued flit 1544
Requeued flit 609
Requeued flit 1009
Requeued flit 1365
Requeued flit 1547
Requeued flit 550
Requeued flit 491
Requeued flit 630
Requeued flit 186
Requeued flit 443
Requeued flit 736
Requeued flit 1382
Requeued flit 1149
Requeued flit 394
Requeued flit 1328
Requeued flit 451
Requeued flit 219
Requeued flit 1274
Requeued flit 1035
Requeued flit 1512
Requeued flit 748
Requeued flit 354
Requeued flit 358
Requeued flit 1346
Requeued flit 1406
Requeued flit 1532
Requeued flit 1119
Requeued flit 77
Requeued flit 885
Requeued flit 463
Requeued flit 147
Requeued flit 1197
Requeued flit 1554
Requeued flit 923
Requeued flit 100
Requeued flit 1379
Requeued flit 1143
Requeued flit 52
Requeued flit 922
Requeued flit 1281
Requeued flit 982
Requeued flit 942
Requeued flit 1477
Requeued flit 1063
Requeued flit 302
Requeued flit 1425
Requeued flit 153
Requeued flit 55
Requeued flit 114
Requeued flit 1085
Requeued flit 1400
Requeued flit 1166
Requeued flit 587
Requeued flit 1581
Requeued flit 1695
Requeued flit 988
Requeued flit 873
Requeued flit 990
Requeued flit 470
Requeued flit 1000
Requeued flit 351
Requeued flit 314
Requeued flit 376
Requeued flit 712
Requeued flit 549
Requeued flit 838
Requeued flit 1194
Requeued flit 1490
Requeued flit 564
Requeued flit 1726
Requeued flit 496
Requeued flit 1728
Requeued flit 441
Requeued flit 791
Requeued flit 1500
Requeued flit 1615
Requeued flit 683
Requeued flit 453
Requeued flit 807
Requeued flit 1282
Requeued flit 465
Requeued flit 1528
Requeued flit 1535
Requeued flit 1061
Requeued flit 1711
Requeued flit 120
Requeued flit 1715
Requeued flit 610
Requeued flit 545
Requeued flit 1656
Requeued flit 104
Requeued flit 555
Requeued flit 1605
Requeued flit 557
Requeued flit 967
Requeued flit 692
Requeued flit 567
Requeued flit 1030
Requeued flit 1214
Requeued flit 405
Requeued flit 1159
Requeued flit 1105
Requeued flit 754
Requeued flit 1520
Requeued flit 1692
Requeued flit 1283
Requeued flit 1751
Requeued flit 871
Requeued flit 73
Requeued flit 1760
Requeued flit 1820
Requeued flit 1299
Requeued flit 484
Requeued flit 1310
Requeued flit 205
Requeued flit 1725
Requeued flit 552
Requeued flit 1565
Requeued flit 1731
Requeued flit 1671
Requeued flit 1674
Requeued flit 913
Requeued flit 627
Requeued flit 1271
Requeued flit 914
Requeued flit 815
Requeued flit 1290
Requeued flit 819
Requeued flit 1467
Requeued flit 764
Requeued flit 1756
Requeued flit 1053
Requeued flit 1761
Requeued flit 1302
Requeued flit 175
Requeued flit 716
Requeued flit 1127
Requeued flit 1653
Requeued flit 672
Requeued flit 616
Requeued flit 1430
Requeued flit 836
Requeued flit 249
Requeued flit 1494
Requeued flit 284
Requeued flit 1729
Requeued flit 1561
Requeued flit 1787
Requeued flit 1733
Requeued flit 1739
Requeued flit 1211
Requeued flit 1904
Requeued flit 1280
Requeued flit 1103
Requeued flit 1862
Requeued flit 699
Requeued flit 589
Requeued flit 877
Requeued flit 180
Requeued flit 58
Requeued flit 882
Requeued flit 518
Requeued flit 1150
Requeued flit 1071
Requeued flit 1190
Requeued flit 1146
Requeued flit 468
Requeued flit 556
Requeued flit 1833
Requeued flit 1082
Requeued flit 1560
Requeued flit 1796
Requeued flit 1391
Requeued flit 748
Requeued flit 1164
Requeued flit 1578
Requeued flit 1805
Requeued flit 1808
Requeued flit 1052
Requeued flit 7
Requeued flit 1045
Requeued flit 533
Requeued flit 1348
Requeued flit 1934
Requeued flit 1935
Requeued flit 333
Requeued flit 1940
Requeued flit 729
Requeued flit 1886
Requeued flit 1496
Requeued flit 1838
Requeued flit 1485
Requeued flit 1503
Requeued flit 2020
Requeued flit 984
Requeued flit 1407
Requeued flit 125
Requeued flit 1922
Requeued flit 1297
Requeued flit 1536
Requeued flit 351
Requeued flit 306
Requeued flit 1542
Requeued flit 1232
Requeued flit 1932
Requeued flit 1070
Requeued flit 721
Requeued flit 128
Requeued flit 1368
Requeued flit 1550
Requeued flit 1604
Requeued flit 1156
Requeued flit 1683
Requeued flit 2003
Requeued flit 1614
Requeued flit 1501
Requeued flit 201
Requeued flit 1209
Requeued flit 1845
Requeued flit 802
Requeued flit 239
Requeued flit 1695
Requeued flit 1519
Requeued flit 1577
Requeued flit 2090
Requeued flit 1591
Requeued flit 138
Requeued flit 420
Requeued flit 1872
Requeued flit 1317
Requeued flit 1066
Requeued flit 1769
Requeued flit 1714
Requeued flit 1831
Requeued flit 1017
Requeued flit 2054
Requeued flit 953
Requeued flit 1891
Requeued flit 2062
Requeued flit 1029
Requeued flit 1269
Requeued flit 1512
Requeued flit 2073
Requeued flit 2076
Requeued flit 2133
Requeued flit 0
Requeued flit 10
Requeued flit 1113
Requeued flit 813
Requeued flit 2095
Requeued flit 1648
Requeued flit 1415
Requeued flit 931
Requeued flit 1606
Requeued flit 2169
Requeued flit 274
Requeued flit 963
Requeued flit 1204
Requeued flit 1278
Requeued flit 1731
Requeued flit 1615
Requeued flit 2007
Requeued flit 1617
Requeued flit 2066
Requeued flit 2070
Requeued flit 632
Requeued flit 1692
Requeued flit 2139
Requeued flit 130
Requeued flit 6
Requeued flit 1593
Requeued flit 1471
Requeued flit 1429
Requeued flit 1598
Requeued flit 1991
Requeued flit 1509
Requeued flit 958
Requeued flit 785
Requeued flit 744
Requeued flit 99
Requeued flit 2183
Requeued flit 1098
Requeued flit 578
Requeued flit 986
Requeued flit 2083
Requeued flit 1465
Requeued flit 467
Requeued flit 936
Requeued flit 418
Requeued flit 1643
Requeued flit 2093
Requeued flit 45
Requeued flit 1061
Requeued flit 2273
Requeued flit 603
Requeued flit 861
Requeued flit 205
Requeued flit 1783
Requeued flit 2058
Requeued flit 2005
Requeued flit 1894
Requeued flit 975
Requeued flit 1572
Requeued flit 2249
Requeued flit 2134
Requeued flit 2194
Requeued flit 1462
Requeued flit 1166
Requeued flit 1545
Requeued flit 1302
Requeued flit 947
Requeued flit 820
Requeued flit 1656
Requeued flit 1488
Requeued flit 2108
Requeued flit 1089
Requeued flit 284
Requeued flit 2173
Requeued flit 1739
Requeued flit 1953
Requeued flit 1626
Requeued flit 1039
Requeued flit 1857
Requeued flit 2317
Requeued flit 1346
Requeued flit 2199
Requeued flit 2085
Requeued flit 1641
Requeued flit 2089
Requeued flit 1412
Requeued flit 766
Requeued flit 1122
Requeued flit 2330
Requeued flit 2388
Requeued flit 1770
Requeued flit 630
Requeued flit 1077
Requeued flit 114
Requeued flit 2346
Requeued flit 1161
Requeued flit 2175
Requeued flit 2409
Requeued flit 1672
Requeued flit 510
Requeued flit 579
Requeued flit 851
Requeued flit 1681
Requeued flit 2363
Requeued flit 2309
Requeued flit 1748
Requeued flit 1048
Requeued flit 1756
Requeued flit 351
Requeued flit 869
Requeued flit 2156
Requeued flit 485
Requeued flit 1483
Requeued flit 1715
Requeued flit 104
Requeued flit 1146
Requeued flit 2219
Requeued flit 2049
Requeued flit 676
Requeued flit 1133
Requeued flit 224
Requeued flit 179
Requeued flit 991
Requeued flit 2060
Requeued flit 1787
Requeued flit 2358
Requeued flit 750
Requeued flit 810
Requeued flit 1215
Requeued flit 2426
Requeued flit 1522
Requeued flit 1592
Requeued flit 1236
Requeued flit 1047
Requeued flit 1821
Requeued flit 292
Requeued flit 1479
Requeued flit 1931
Requeued flit 608
Requeued flit 1878
Requeued flit 2216
Requeued flit 1250
Requeued flit 2455
Requeued flit 1725
Requeued flit 1570
Requeued flit 1846
Requeued flit 734
Requeued flit 400
Requeued flit 1674
Requeued flit 282
Requeued flit 2299
Requeued flit 2011
Requeued flit 2537
Requeued flit 2538
Requeued flit 1856
Requeued flit 1468
Requeued flit 2077
Requeued flit 419
Requeued flit 818
Requeued flit 662
Requeued flit 251
Requeued flit 740
Requeued flit 365
Requeued flit 2501
Requeued flit 2502
Requeued flit 1304
Requeued flit 1422
Requeued flit 2509
Requeued flit 1509
Requeued flit 2451
Requeued flit 100
Requeued flit 823
Requeued flit 1833
Requeued flit 325
Requeued flit 694
Requeued flit 1553
Requeued flit 2054
Requeued flit 1555
Requeued flit 1267
Requeued flit 1841
Requeued flit 980
Requeued flit 2481
Requeued flit 1636
Requeued flit 2547
Requeued flit 590
Requeued flit 1814
Requeued flit 1474
Requeued flit 1980
Requeued flit 1712
Requeued flit 1244
Requeued flit 2275
Requeued flit 1714
Requeued flit 1598
Requeued flit 2394
Requeued flit 1659
Requeued flit 673
Requeued flit 1232
Requeued flit 2052
Requeued flit 612
Requeued flit 2632
Requeued flit 1038
Requeued flit 2227
Requeued flit 502
Requeued flit 1435
Requeued flit 2525
Requeued flit 1087
Requeued flit 1033
Requeued flit 2415
Requeued flit 1742
Requeued flit 1513
Requeued flit 748
Requeued flit 2076
Requeued flit 2598
Requeued flit 1916
Requeued flit 1755
Requeued flit 2493
Requeued flit 938
Requeued flit 24
Requeued flit 1660
Requeued flit 45
Requeued flit 2152
Requeued flit 777
Requeued flit 870
Requeued flit 2569
Requeued flit 1777
Requeued flit 1883
Requeued flit 1840
Requeued flit 299
Requeued flit 2577
Requeued flit 1668
Requeued flit 1440
Requeued flit 1561
Requeued flit 2524
Requeued flit 1740
Requeued flit 2411
Requeued flit 1903
Requeued flit 2361
Requeued flit 1040
Requeued flit 1959
Requeued flit 2543
Requeued flit 993
Requeued flit 2666
Requeued flit 2668
Requeued flit 704
Requeued flit 366
Requeued flit 1063
Requeued flit 2616
Requeued flit 2209
Requeued flit 1005
Requeued flit 549
Requeued flit 2215
Requeued flit 1720
Requeued flit 1104
Requeued flit 956
Requeued flit 440
Requeued flit 1996
Requeued flit 463
Requeued flit 2001
Requeued flit 352
Requeued flit 1335
Requeued flit 2715
Requeued flit 1167
Requeued flit 2544
Requeued flit 2317
Requeued flit 1864
Requeued flit 2144
Requeued flit 2607
Requeued flit 1703
Requeued flit 1868
Requeued flit 2051
Requeued flit 1245
Requeued flit 1549
Requeued flit 2746
Requeued flit 13
Requeued flit 2108
Requeued flit 723
Requeued flit 1683
Requeued flit 1671
Requeued flit 1573
Requeued flit 2583
Requeued flit 2758
Requeued flit 2064
Requeued flit 2527
Requeued flit 2648
Requeued flit 1154
Requeued flit 52
Requeued flit 1275
Requeued flit 2364
Requeued flit 2713
Requeued flit 1165
Requeued flit 1962
Requeued flit 2314
Requeued flit 2782
Requeued flit 2199
Requeued flit 1813
Requeued flit 2850
Requeued flit 1347
Requeued flit 1064
Requeued flit 2736
Requeued flit 1119
Requeued flit 776
Requeued flit 2862
Requeued flit 488
Requeued flit 2283
Requeued flit 1663
Requeued flit 1447
Requeued flit 2290
Requeued flit 1729
Requeued flit 2883
Requeued flit 2004
Requeued flit 2826
Requeued flit 913
Requeued flit 1955
Requeued flit 2131
Requeued flit 977
Requeued flit 1282
Requeued flit 2200
Requeued flit 1293
Requeued flit 425
Requeued flit 46
Requeued flit 279
Requeued flit 1767
Requeued flit 2738
Requeued flit 1670
Requeued flit 2865
Requeued flit 2866
Requeued flit 2516
Requeued flit 2751
Requeued flit 1944
Requeued flit 2696
Requeued flit 1441
Requeued flit 1067
Requeued flit 2595
Requeued flit 2705
Requeued flit 1336
Requeued flit 2709
Requeued flit 2834
Requeued flit 2774
Requeued flit 1400
Requeued flit 1633
Requeued flit 2718
Requeued flit 2842
Requeued flit 986
Requeued flit 2901
Requeued flit 1326
Requeued flit 2310
Requeued flit 2611
Requeued flit 1933
Requeued flit 520
Requeued flit 2272
Requeued flit 1705
Requeued flit 1825
Requeued flit 2214
Requeued flit 619
Requeued flit 1637
Requeued flit 582
Requeued flit 2397
Requeued flit 692
Requeued flit 1557
Requeued flit 2876
Requeued flit 2230
Requeued flit 2177
Requeued flit 2944
Requeued flit 2360
Requeued flit 2773
Requeued flit 1964
Requeued flit 2659
Requeued flit 2550
Requeued flit 877
Requeued flit 2325
Requeued flit 920
Requeued flit 1183
Requeued flit 1348
Requeued flit 1310
Requeued flit 2504
Requeued flit 2682
Requeued flit 2449
Requeued flit 2634
Requeued flit 2645
Requeued flit 709
Requeued flit 969
Requeued flit 2300
Requeued flit 2885
Requeued flit 1218
Requeued flit 2247
Requeued flit 2426
Requeued flit 1286
Requeued flit 2135
Requeued flit 2781
Requeued flit 2849
Requeued flit 2852
Requeued flit 722
Requeued flit 2512
Requeued flit 2398
Requeued flit 2054
Requeued flit 2216
Requeued flit 3041
Requeued flit 793
Requeued flit 1262
Requeued flit 2345
Requeued flit 1074
Requeued flit 1845
Requeued flit 2588
Requeued flit 2123
Requeued flit 121
Requeued flit 2188
Requeued flit 1849
Requeued flit 1682
Requeued flit 863
Requeued flit 2134
Requeued flit 586
Requeued flit 2146
Requeued flit 2555
Requeued flit 532
Requeued flit 2793
Requeued flit 1984
Requeued flit 1509
Requeued flit 2913
Requeued flit 609
Requeued flit 181
Requeued flit 777
Requeued flit 120
Requeued flit 675
Requeued flit 2990
Requeued flit 1277
Requeued flit 571
Requeued flit 1279
Requeued flit 2191
Requeued flit 2600
Requeued flit 909
Requeued flit 3184
Requeued flit 3132
Requeued flit 3073
Requeued flit 2094
Requeued flit 2964
Requeued flit 1480
Requeued flit 1770
Requeued flit 861
Requeued flit 1471
Requeued flit 1370
Requeued flit 931
Requeued flit 2105
Requeued flit 2923
Requeued flit 1611
Requeued flit 1721
Requeued flit 491
Requeued flit 2928
Requeued flit 2227
Requeued flit 1790
Requeued flit 1563
Requeued flit 3161
Requeued flit 919
Requeued flit 2535
Requeued flit 2369
Requeued flit 3122
Requeued flit 3010
Requeued flit 2836
Requeued flit 2253
Requeued flit 2382
Requeued flit 480
Requeued flit 3027
Requeued flit 921
Requeued flit 2107
Requeued flit 1484
Requeued flit 1245
Requeued flit 2917
Requeued flit 2441
Requeued flit 1550
Requeued flit 1938
Requeued flit 961
Requeued flit 3206
Requeued flit 951
Requeued flit 1038
Requeued flit 114
Requeued flit 2635
Requeued flit 560
Requeued flit 1329
Requeued flit 977
Requeued flit 2487
Requeued flit 2195
Requeued flit 3242
Requeued flit 1061
Requeued flit 1108
Requeued flit 1717
Requeued flit 1647
Requeued flit 1264
Requeued flit 2065
Requeued flit 1029
Requeued flit 1271
Requeued flit 981
Requeued flit 750
Requeued flit 2946
Requeued flit 2539
Requeued flit 2839
Requeued flit 2958
Requeued flit 2036
Requeued flit 1590
Requeued flit 2909
Requeued flit 2564
Requeued flit 2568
Requeued flit 3305
Requeued flit 2740
Requeued flit 2685
Requeued flit 1737
Requeued flit 728
Requeued flit 929
Requeued flit 3259
Requeued flit 2517
Requeued flit 1092
Requeued flit 2834
Requeued flit 2311
Requeued flit 3121
Requeued flit 1109
Requeued flit 3068
Requeued flit 2029
Requeued flit 831
Requeued flit 1972
Requeued flit 2204
Requeued flit 967
Requeued flit 2272
Requeued flit 870
Requeued flit 2449
Requeued flit 2461
Requeued flit 539
Requeued flit 458
Requeued flit 297
Requeued flit 2479
Requeued flit 2774
Requeued flit 3231
Requeued flit 2781
Requeued flit 1528
Requeued flit 1057
Requeued flit 476
Requeued flit 3192
Requeued flit 2676
Requeued flit 2918
Requeued flit 2396
Requeued flit 947
Requeued flit 2223
Requeued flit 2516
Requeued flit 2872
Requeued flit 1375
Requeued flit 371
Requeued flit 1786
Requeued flit 1160
Requeued flit 2696
Requeued flit 3319
Requeued flit 2762
Requeued flit 2416
Requeued flit 2768
Requeued flit 3445
Requeued flit 2896
Requeued flit 3344
Requeued flit 932
Requeued flit 996
Requeued flit 3075
Requeued flit 3352
Requeued flit 1714
Requeued flit 3029
Requeued flit 2916
Requeued flit 3416
Requeued flit 2392
Requeued flit 3043
Requeued flit 2581
Requeued flit 379
Requeued flit 1621
Requeued flit 1039
Requeued flit 3486
Requeued flit 3332
Requeued flit 3391
Requeued flit 1338
Requeued flit 2316
Requeued flit 2196
Requeued flit 349
Requeued flit 2208
Requeued flit 1297
Requeued flit 2389
Requeued flit 2680
Requeued flit 2869
Requeued flit 2870
Requeued flit 3422
Requeued flit 79
Requeued flit 453
Requeued flit 2522
Requeued flit 2526
Requeued flit 2829
Requeued flit 3000
Requeued flit 2542
Requeued flit 3281
Requeued flit 3497
Requeued flit 1918
Requeued flit 753
Requeued flit 2500
Requeued flit 2798
Requeued flit 3357
Requeued flit 1291
Requeued flit 3087
Requeued flit 1017
Requeued flit 838
Requeued flit 1136
Requeued flit 2628
Requeued flit 3471
Requeued flit 2634
Requeued flit 1099
Requeued flit 3527
Requeued flit 2060
Requeued flit 625
Requeued flit 3653
Requeued flit 3437
Requeued flit 981
Requeued flit 2707
Requeued flit 1035
Requeued flit 1850
Requeued flit 3114
Requeued flit 3280
Requeued flit 2546
Requeued flit 2899
Requeued flit 3401
Requeued flit 2151
Requeued flit 2269
Requeued flit 2378
Requeued flit 3521
Requeued flit 2050
Requeued flit 2813
Requeued flit 1869
Requeued flit 1021
Requeued flit 3156
Requeued flit 2351
Requeued flit 1329
Requeued flit 2390
Requeued flit 3441
Requeued flit 1513
Requeued flit 3602
Requeued flit 3664
Requeued flit 2718
Requeued flit 2552
Requeued flit 130
Requeued flit 2042
Requeued flit 1310
Requeued flit 2800
Requeued flit 2862
Requeued flit 2805
Requeued flit 2978
Requeued flit 2168
Requeued flit 2582
Requeued flit 1666
Requeued flit 2686
Requeued flit 1615
Requeued flit 2298
Requeued flit 3052
Requeued flit 567
Requeued flit 3712
Requeued flit 3656
Requeued flit 3060
Requeued flit 3657
Requeued flit 2833
Requeued flit 3601
Requeued flit 3663
Requeued flit 3010
Requeued flit 2133
Requeued flit 3249
Requeued flit 2965
Requeued flit 1979
Requeued flit 2331
Requeued flit 3030
Requeued flit 1011
Requeued flit 2333
Requeued flit 2039
Requeued flit 440
Requeued flit 2397
Requeued flit 1096
Requeued flit 3699
Requeued flit 2521
Requeued flit 1500
Requeued flit 2181
Requeued flit 2034
Requeued flit 2466
Requeued flit 3533
Requeued flit 924
Requeued flit 3105
Requeued flit 1152
Requeued flit 2824
Requeued flit 3001
Requeued flit 2774
Requeued flit 2488
Requeued flit 100
Requeued flit 2959
Requeued flit 3183
Requeued flit 3846
Requeued flit 2497
Requeued flit 2321
Requeued flit 777
Requeued flit 1990
Requeued flit 3803
Requeued flit 3805
Requeued flit 2641
Requeued flit 955
Requeued flit 2224
Requeued flit 2538
Requeued flit 3645
Requeued flit 951
Requeued flit 2941
Requeued flit 2995
Requeued flit 2942
Requeued flit 3826
Requeued flit 3595
Requeued flit 2594
Requeued flit 3389
Requeued flit 3278
Requeued flit 2665
Requeued flit 1728
Requeued flit 1082
Requeued flit 3741
Requeued flit 3799
Requeued flit 2327
Requeued flit 1489
Requeued flit 2626
Requeued flit 2505
Requeued flit 2799
Requeued flit 2392
Requeued flit 1895
Requeued flit 3214
Requeued flit 2473
Requeued flit 3711
Requeued flit 3769
Requeued flit 3775
Requeued flit 1287
Requeued flit 3123
Requeued flit 3899
Requeued flit 2549
Requeued flit 993
Requeued flit 2606
Requeued flit 3786
Requeued flit 2901
Requeued flit 2897
Requeued flit 2672
Requeued flit 3913
Requeued flit 363
Requeued flit 853
Requeued flit 2863
Requeued flit 1401
Requeued flit 1112
Requeued flit 2930
Requeued flit 3807
Requeued flit 3467
Requeued flit 3092
Requeued flit 2575
Requeued flit 3869
Requeued flit 3870
Requeued flit 2770
Requeued flit 3878
Requeued flit 2179
Requeued flit 2706
Requeued flit 632
Requeued flit 3386
Requeued flit 3894
Requeued flit 1856
Requeued flit 3344
Requeued flit 4023
Requeued flit 753
Requeued flit 3847
Requeued flit 3037
Requeued flit 1348
Requeued flit 1426
Requeued flit 1794
Requeued flit 3977
Requeued flit 1132
Requeued flit 2341
Requeued flit 1743
Requeued flit 3370
Requeued flit 1944
Requeued flit 2878
Requeued flit 3933
Requeued flit 3884
Requeued flit 3166
Requeued flit 3890
Requeued flit 3062
Requeued flit 1343
Requeued flit 3668
Requeued flit 4017
Requeued flit 2031
Requeued flit 2550
Requeued flit 3965
Requeued flit 1042
Requeued flit 3970
Requeued flit 3412
Requeued flit 4033
Requeued flit 699
Requeued flit 3978
Requeued flit 3160
Requeued flit 1943
Requeued flit 2463
Requeued flit 2880
Requeued flit 2651
Requeued flit 2306
Requeued flit 3947
Requeued flit 917
Requeued flit 2893
Requeued flit 3664
Requeued flit 2603
Requeued flit 2848
Requeued flit 2729
Requeued flit 3849
Requeued flit 1539
Requeued flit 1063
Requeued flit 2738
Requeued flit 1479
Requeued flit 2277
Requeued flit 2720
Requeued flit 3862
Requeued flit 3149
Requeued flit 1396
Requeued flit 3379
Requeued flit 2404
Requeued flit 3371
Requeued flit 3050
Requeued flit 3771
Requeued flit 3591
Requeued flit 1568
Requeued flit 4114
Requeued flit 2767
Requeued flit 3488
Requeued flit 2426
Requeued flit 1636
Requeued flit 4130
Requeued flit 2063
Requeued flit 4198
Requeued flit 3619
Requeued flit 3734
Requeued flit 3140
Requeued flit 2593
Requeued flit 1100
Requeued flit 2157
Requeued flit 3859
Requeued flit 3154
Requeued flit 2406
Requeued flit 2469
Requeued flit 2354
Requeued flit 3159
Requeued flit 2470
Requeued flit 4169
Requeued flit 3267
Requeued flit 4061
Requeued flit 2536
Requeued flit 3663
Requeued flit 3724
Requeued flit 4192
Requeued flit 1969
Requeued flit 2609
Requeued flit 594
Requeued flit 2851
Requeued flit 3852
Requeued flit 354
Requeued flit 4088
Requeued flit 3122
Requeued flit 603
Requeued flit 4273
Requeued flit 4213
Requeued flit 298
Requeued flit 2595
Requeued flit 3702
Requeued flit 4105
Requeued flit 2936
Requeued flit 4287
Requeued flit 3385
Requeued flit 4172
Requeued flit 4239
Requeued flit 3170
Requeued flit 3006
Requeued flit 1344
Requeued flit 3336
Requeued flit 2901
Requeued flit 3024
Requeued flit 541
Requeued flit 480
Requeued flit 2078
Requeued flit 1489
Requeued flit 692
Requeued flit 4328
Requeued flit 2394
Requeued flit 2517
Requeued flit 675
Requeued flit 2230
Requeued flit 3101
Requeued flit 3648
Requeued flit 1092
Requeued flit 3657
Requeued flit 3052
Requeued flit 2828
Requeued flit 3222
Requeued flit 3000
Requeued flit 3009
Requeued flit 2656
Requeued flit 4308
Requeued flit 2088
Requeued flit 4258
Requeued flit 4314
Requeued flit 3679
Requeued flit 1123
Requeued flit 449
Requeued flit 3194
Requeued flit 3515
Requeued flit 1038
Requeued flit 1255
Requeued flit 1221
Requeued flit 1786
Requeued flit 3822
Requeued flit 1889
Requeued flit 3650
Requeued flit 4303
Requeued flit 3952
Requeued flit 4251
Requeued flit 4197
Requeued flit 3134
Requeued flit 2746
Requeued flit 4380
Requeued flit 1712
Requeued flit 4384
Requeued flit 3304
Requeued flit 3977
Requeued flit 1674
Requeued flit 902
Requeued flit 1337
Requeued flit 2576
Requeued flit 2340
Requeued flit 3642
Requeued flit 748
Requeued flit 4344
Requeued flit 3049
Requeued flit 3708
Requeued flit 2118
Requeued flit 904
Requeued flit 3769
Requeued flit 2127
Requeued flit 4357
Requeued flit 4428
Requeued flit 4430
Requeued flit 2091
Requeued flit 4434
Requeued flit 2349
Requeued flit 3349
Requeued flit 3412
Requeued flit 1794
Requeued flit 2397
Requeued flit 2868
Requeued flit 830
Requeued flit 1664
Requeued flit 2700
Requeued flit 2632
Requeued flit 3208
Requeued flit 3758
Requeued flit 4164
Requeued flit 4400
Requeued flit 3200
Requeued flit 2300
Requeued flit 3268
Requeued flit 2533
Requeued flit 4358
Requeued flit 3838
Requeued flit 754
Requeued flit 2548
Requeued flit 1176
Requeued flit 4195
Requeued flit 3130
Requeued flit 2841
Requeued flit 2513
Requeued flit 3920
Requeued flit 3019
Requeued flit 1484
Requeued flit 3967
Requeued flit 2952
Requeued flit 488
Requeued flit 2393
Requeued flit 1833
Requeued flit 2333
Requeued flit 4559
Requeued flit 3109
Requeued flit 4451
Requeued flit 2981
Requeued flit 4393
Requeued flit 4512
Requeued flit 4516
Requeued flit 4177
Requeued flit 2352
Requeued flit 2766
Requeued flit 2246
Requeued flit 3830
Requeued flit 4005
Requeued flit 4013
Requeued flit 2954
Requeued flit 4483
Requeued flit 3730
Requeued flit 3018
Requeued flit 4547
Requeued flit 620
Requeued flit 1914
Requeued flit 3458
Requeued flit 4553
Requeued flit 2100
Requeued flit 2222
Requeued flit 3751
Requeued flit 4510
Requeued flit 1291
Requeued flit 2979
Requeued flit 3429
Requeued flit 3108
Requeued flit 2132
Requeued flit 4299
Requeued flit 4592
Requeued flit 3496
Requeued flit 2487
Requeued flit 2152
Requeued flit 1248
Requeued flit 4610
Requeued flit 4552
Requeued flit 4620
Requeued flit 2595
Requeued flit 2523
Requeued flit 1411
Requeued flit 863
Requeued flit 4462
Requeued flit 3385
Requeued flit 1621
Requeued flit 4352
Requeued flit 4648
Requeued flit 3178
Requeued flit 1293
Requeued flit 4604
Requeued flit 1762
Requeued flit 4026
Requeued flit 3080
Requeued flit 3682
Requeued flit 3852
Requeued flit 1892
Requeued flit 3464
Requeued flit 4681
Requeued flit 2869
Requeued flit 4562
Requeued flit 298
Requeued flit 3364
Requeued flit 3039
Requeued flit 4629
Requeued flit 1376
Requeued flit 4635
Requeued flit 2087
Requeued flit 3775
Requeued flit 1034
Requeued flit 3124
Requeued flit 4659
Requeued flit 3785
Requeued flit 1976
Requeued flit 1518
Requeued flit 4667
Requeued flit 3508
Requeued flit 2909
Requeued flit 1668
Requeued flit 3302
Requeued flit 1420
Requeued flit 1600
Requeued flit 1401
Requeued flit 3819
Requeued flit 2875
Requeued flit 2174
Requeued flit 3529
Requeued flit 2854
Requeued flit 1219
Requeued flit 3997
Requeued flit 4239
Requeued flit 4702
Requeued flit 4471
Requeued flit 2710
Requeued flit 4356
Requeued flit 4361
Requeued flit 3174
Requeued flit 1287
Requeued flit 1350
Requeued flit 4428
Requeued flit 4372
Requeued flit 946
Requeued flit 3245
Requeued flit 4790
Requeued flit 2908
Requeued flit 2914
Requeued flit 1395
Requeued flit 4269
Requeued flit 3356
Requeued flit 2785
Requeued flit 3254
Requeued flit 4507
Requeued flit 4508
Requeued flit 2870
Requeued flit 728
Requeued flit 4805
Requeued flit 1073
Requeued flit 3521
Requeued flit 4344
Requeued flit 2489
Requeued flit 4754
Requeued flit 1679
Requeued flit 3163
Requeued flit 3543
Requeued flit 3890
Requeued flit 4650
Requeued flit 4886
Requeued flit 3443
Requeued flit 3396
Requeued flit 4540
Requeued flit 2140
Requeued flit 4665
Requeued flit 2732
Requeued flit 4723
Requeued flit 4798
Requeued flit 4396
Requeued flit 2290
Requeued flit 2771
Requeued flit 3726
Requeued flit 4423
Requeued flit 4416
Requeued flit 2263
Requeued flit 4900
Requeued flit 2323
Requeued flit 4082
Requeued flit 1984
Requeued flit 4674
Requeued flit 4736
Requeued flit 3109
Requeued flit 114
Requeued flit 4451
Requeued flit 3810
Requeued flit 3480
Requeued flit 3932
Requeued flit 3097
Requeued flit 3703
Requeued flit 2739
Requeued flit 4817
Requeued flit 2939
Requeued flit 2298
Requeued flit 3592
Requeued flit 3381
Requeued flit 2250
Requeued flit 2079
Requeued flit 4947
Requeued flit 2606
Requeued flit 4782
Requeued flit 3678
Requeued flit 4613
Requeued flit 578
Requeued flit 2211
Requeued flit 1922
Requeued flit 4969
Requeued flit 440
Requeued flit 3750
Requeued flit 2986
Requeued flit 3752
Requeued flit 2465
Requeued flit 782
Requeued flit 3257
Requeued flit 2499
Requeued flit 2364
Requeued flit 3822
Requeued flit 4224
Requeued flit 1044
Requeued flit 4813
Requeued flit 4815
Requeued flit 4170
Requeued flit 4934
Requeued flit 2650
Requeued flit 3440
Requeued flit 4709
Requeued flit 1753
Requeued flit 3448
Requeued flit 3671
Requeued flit 4663
Requeued flit 4434
Requeued flit 3559
Requeued flit 739
Requeued flit 3240
Requeued flit 4258
Requeued flit 886
Requeued flit 425
Requeued flit 3622
Requeued flit 932
Requeued flit 4858
Requeued flit 3803
Requeued flit 4163
Requeued flit 1973
Requeued flit 3880
Requeued flit 5113
Requeued flit 4186
Requeued flit 4479
Requeued flit 5054
Requeued flit 4596
Requeued flit 5003
Requeued flit 2063
Requeued flit 3286
Requeued flit 2258
Requeued flit 3844
Requeued flit 2375
Requeued flit 2437
Requeued flit 2738
Requeued flit 4555
Requeued flit 3514
Requeued flit 4427
Requeued flit 2860
Requeued flit 1603
Requeued flit 2248
Requeued flit 5148
Requeued flit 4047
Requeued flit 3959
Requeued flit 3759
Requeued flit 3761
Requeued flit 5037
Requeued flit 4468
Requeued flit 2067
Requeued flit 3220
Requeued flit 3547
Requeued flit 3334
Requeued flit 5120
Requeued flit 4778
Requeued flit 1048
Requeued flit 2614
Requeued flit 4552
Requeued flit 3510
Requeued flit 2881
Requeued flit 4143
Requeued flit 5081
Requeued flit 3405
Requeued flit 3807
Requeued flit 3253
Requeued flit 1368
Requeued flit 3889
Requeued flit 1251
Requeued flit 2747
Requeued flit 963
Requeued flit 2854
Requeued flit 3936
Requeued flit 2297
Requeued flit 5104
Requeued flit 3386
Requeued flit 3544
Requeued flit 4246
Requeued flit 4538
Requeued flit 3496
Requeued flit 3552
Requeued flit 5233
Requeued flit 3343
Requeued flit 4485
Requeued flit 4670
Requeued flit 4141
Requeued flit 4612
Requeued flit 3081
Requeued flit 4620
Requeued flit 3073
Requeued flit 5084
Requeued flit 4097
Requeued flit 2980
Requeued flit 4378
Requeued flit 5027
Requeued flit 4164
Requeued flit 4343
Requeued flit 3483
Requeued flit 5221
Requeued flit 3491
Requeued flit 4886
Requeued flit 3172
Requeued flit 3674
Requeued flit 4377
Requeued flit 5264
Requeued flit 3931
Requeued flit 4929
Requeued flit 1853
Requeued flit 4470
Requeued flit 2415
Requeued flit 3716
Requeued flit 3113
Requeued flit 5049
Requeued flit 3337
Requeued flit 4540
Requeued flit 3980
Requeued flit 5063
Requeued flit 5185
Requeued flit 4902
Requeued flit 3967
Requeued flit 5189
Requeued flit 2718
Requeued flit 3022
Requeued flit 1540
Requeued flit 3974
Requeued flit 5079
Requeued flit 2846
Requeued flit 2106
Requeued flit 1958
Requeued flit 4347
Requeued flit 3710
Requeued flit 3325
Requeued flit 632
Requeued flit 5278
Requeued flit 2534
Requeued flit 4881
Requeued flit 3282
Requeued flit 5346
Requeued flit 3956
Requeued flit 3176
Requeued flit 4125
Requeued flit 768
Requeued flit 5298
Requeued flit 2610
Requeued flit 4433
Requeued flit 2950
Requeued flit 5412
Requeued flit 2078
Requeued flit 3857
Requeued flit 2676
Requeued flit 3715
Requeued flit 5426
Requeued flit 3524
Requeued flit 4207
Requeued flit 4923
Requeued flit 3700
Requeued flit 4979
Requeued flit 1192
Requeued flit 3647
Requeued flit 3436
Requeued flit 5111
Requeued flit 5352
Requeued flit 3858
Requeued flit 2919
Requeued flit 440
Requeued flit 3490
Requeued flit 3987
Requeued flit 4570
Requeued flit 3584
Requeued flit 1615
Requeued flit 4056
Requeued flit 2470
Requeued flit 1112
Requeued flit 5387
Requeued flit 5050
Requeued flit 3727
Requeued flit 3508
Requeued flit 2661
Requeued flit 4304
Requeued flit 3616
Requeued flit 4066
Requeued flit 4200
Requeued flit 4432
Requeued flit 5411
Requeued flit 2913
Requeued flit 3627
Requeued flit 1718
Requeued flit 5534
Requeued flit 4283
Requeued flit 3637
Requeued flit 2460
Requeued flit 5550
Requeued flit 4463
Requeued flit 1848
Requeued flit 4171
Requeued flit 5496
Requeued flit 5497
Requeued flit 5337
Requeued flit 2304
Requeued flit 5505
Requeued flit 4067
Requeued flit 5571
Requeued flit 3897
Requeued flit 2264
Requeued flit 1928
Requeued flit 2429
Requeued flit 4085
Requeued flit 3843
Requeued flit 4852
Requeued flit 3575
Requeued flit 2397
Requeued flit 3633
Requeued flit 3202
Requeued flit 3695
Requeued flit 3206
Requeued flit 454
Requeued flit 2633
Requeued flit 5487
Requeued flit 2994
Requeued flit 5440
Requeued flit 1625
Requeued flit 1235
Requeued flit 4255
Requeued flit 1110
Requeued flit 4258
Requeued flit 5462
Requeued flit 1692
Requeued flit 4556
Requeued flit 2503
Requeued flit 5077
Requeued flit 2231
Requeued flit 2529
Requeued flit 2977
Requeued flit 2163
Requeued flit 5482
Requeued flit 3803
Requeued flit 2402
Requeued flit 2630
Requeued flit 2408
Requeued flit 3318
Requeued flit 5489
Requeued flit 3820
Requeued flit 4404
Requeued flit 5618
Requeued flit 1681
Requeued flit 5619
Requeued flit 2542
Requeued flit 4542
Requeued flit 5054
Requeued flit 5636
Requeued flit 1764
Requeued flit 2325
Requeued flit 5188
Requeued flit 5585
Requeued flit 3030
Requeued flit 4943
Requeued flit 5081
Requeued flit 1580
Requeued flit 2634
Requeued flit 2398
Requeued flit 4528
Requeued flit 5498
Requeued flit 3594
Requeued flit 1005
Requeued flit 5671
Requeued flit 3543
Requeued flit 4709
Requeued flit 4247
Requeued flit 3729
Requeued flit 3128
Requeued flit 4428
Requeued flit 2788
Requeued flit 3164
Requeued flit 5358
Requeued flit 5259
Requeued flit 2106
Requeued flit 3986
Requeued flit 3917
Requeued flit 4162
Requeued flit 3339
Requeued flit 5212
Requeued flit 3106
Requeued flit 4578
Requeued flit 3323
Requeued flit 5616
Requeued flit 4296
Requeued flit 5340
Requeued flit 5792
Requeued flit 4421
Requeued flit 5686
Requeued flit 3614
Requeued flit 5005
Requeued flit 1759
Requeued flit 5577
Requeued flit 1103
Requeued flit 2944
Requeued flit 5301
Requeued flit 1983
Requeued flit 2121
Requeued flit 5703
Requeued flit 5474
Requeued flit 5477
Requeued flit 4610
Requeued flit 3749
Requeued flit 4602
Requeued flit 4181
Requeued flit 2117
Requeued flit 5839
Requeued flit 1790
Requeued flit 3772
Requeued flit 4291
Requeued flit 4006
Requeued flit 5226
Requeued flit 3728
Requeued flit 5506
Requeued flit 4601
Requeued flit 2090
Requeued flit 3617
Requeued flit 1293
Requeued flit 1426
Requeued flit 4371
Requeued flit 2800
Requeued flit 5706
Requeued flit 5534
Requeued flit 5648
Requeued flit 2869
Requeued flit 5315
Requeued flit 2254
Requeued flit 1810
Requeued flit 5772
Requeued flit 3819
Requeued flit 4281
Requeued flit 1500
Requeued flit 1942
Requeued flit 3739
Requeued flit 4113
Requeued flit 4640
Requeued flit 5109
Requeued flit 5903
Requeued flit 1154
Requeued flit 5625
Requeued flit 3669
Requeued flit 5507
Requeued flit 4195
Requeued flit 1525
Requeued flit 5635
Requeued flit 3565
Requeued flit 4684
Requeued flit 988
Requeued flit 4379
Requeued flit 3683
Requeued flit 3949
Requeued flit 5759
Requeued flit 5820
Requeued flit 5877
Requeued flit 1602
Requeued flit 3379
Requeued flit 5829
Requeued flit 3700
Requeued flit 3875
Requeued flit 5496
Requeued flit 5497
Requeued flit 1907
Requeued flit 3003
Requeued flit 3228
Requeued flit 2079
Requeued flit 4627
Requeued flit 5925
Requeued flit 4671
Requeued flit 5984
Requeued flit 2797
Requeued flit 2777
Requeued flit 2655
Requeued flit 4226
Requeued flit 3590
Requeued flit 4154
Requeued flit 2037
Requeued flit 5830
Requeued flit 3780
Requeued flit 3489
Requeued flit 5720
Requeued flit 4755
Requeued flit 5108
Requeued flit 5623
Requeued flit 4655
Requeued flit 4833
Requeued flit 4656
Requeued flit 3898
Requeued flit 5858
Requeued flit 4662
Requeued flit 2436
Requeued flit 5806
Requeued flit 5865
Requeued flit 3766
Requeued flit 3682
Requeued flit 5478
Requeued flit 2469
Requeued flit 3810
Requeued flit 4810
Requeued flit 6003
Requeued flit 5949
Requeued flit 5483
Requeued flit 1622
Requeued flit 4698
Requeued flit 3653
Requeued flit 2994
Requeued flit 3539
Requeued flit 4645
Requeued flit 2189
Requeued flit 6077
Requeued flit 5734
Requeued flit 1581
Requeued flit 4012
Requeued flit 3011
Requeued flit 3496
Requeued flit 5573
Requeued flit 768
Requeued flit 4248
Requeued flit 4252
Requeued flit 2966
Requeued flit 2273
Requeued flit 5243
Requeued flit 4339
Requeued flit 1835
Requeued flit 5482
Requeued flit 1946
Requeued flit 4866
Requeued flit 3989
Requeued flit 2416
Requeued flit 4522
Requeued flit 2764
Requeued flit 5957
Requeued flit 5440
Requeued flit 5619
Requeued flit 1857
Requeued flit 6088
Requeued flit 5575
Requeued flit 4491
Requeued flit 4725
Requeued flit 4202
Requeued flit 6159
Requeued flit 6101
Requeued flit 2331
Requeued flit 4385
Requeued flit 6050
Requeued flit 4214
Requeued flit 5885
Requeued flit 4078
Requeued flit 1999
Requeued flit 5545
Requeued flit 5434
Requeued flit 4756
Requeued flit 3252
Requeued flit 4000
Requeued flit 5223
Requeued flit 4414
Requeued flit 1390
Requeued flit 5912
Requeued flit 2657
Requeued flit 2424
Requeued flit 4022
Requeued flit 5691
Requeued flit 3540
Requeued flit 5752
Requeued flit 3446
Requeued flit 2529
Requeued flit 4970
Requeued flit 4037
Requeued flit 4390
Requeued flit 2453
Requeued flit 2282
Requeued flit 2936
Requeued flit 3642
Requeued flit 1092
Requeued flit 1678
Requeued flit 5839
Requeued flit 6127
Requeued flit 5901
Requeued flit 4824
Requeued flit 1960
Requeued flit 5111
Requeued flit 6197
Requeued flit 4068
Requeued flit 4715
Requeued flit 578
Requeued flit 4194
Requeued flit 1338
Requeued flit 2734
Requeued flit 6047
Requeued flit 2302
Requeued flit 4437
Requeued flit 1353
Requeued flit 5415
Requeued flit 1623
Requeued flit 4444
Requeued flit 2687
Requeued flit 6172
Requeued flit 2690
Requeued flit 3440
Requeued flit 6295
Requeued flit 4633
Requeued flit 6123
Requeued flit 2592
Requeued flit 5338
Requeued flit 5966
Requeued flit 5683
Requeued flit 6205
Requeued flit 4779
Requeued flit 6035
Requeued flit 5000
Requeued flit 5457
Requeued flit 1301
Requeued flit 594
Requeued flit 4794
Requeued flit 6277
Requeued flit 2622
Requeued flit 4639
Requeued flit 3787
Requeued flit 6166
Requeued flit 6282
Requeued flit 4093
Requeued flit 1629
Requeued flit 1191
Requeued flit 2978
Requeued flit 3803
Requeued flit 2679
Requeued flit 4634
Requeued flit 4532
Requeued flit 2133
Requeued flit 4873
Requeued flit 1679
Requeued flit 3827
Requeued flit 2019
Requeued flit 1741
Requeued flit 3548
Requeued flit 5396
Requeued flit 6317
Requeued flit 5061
Requeued flit 3534
Requeued flit 5463
Requeued flit 3556
Requeued flit 4098
Requeued flit 1593
Requeued flit 887
Requeued flit 5643
Requeued flit 5933
Requeued flit 1635
Requeued flit 6405
Requeued flit 3267
Requeued flit 6287
Requeued flit 3825
Requeued flit 5418
Requeued flit 6290
Requeued flit 4336
Requeued flit 3442
Requeued flit 5658
Requeued flit 6239
Requeued flit 3076
Requeued flit 5100
Requeued flit 3054
Requeued flit 4179
Requeued flit 6189
Requeued flit 3658
Requeued flit 6140
Requeued flit 3011
Requeued flit 4249
Requeued flit 6436
Requeued flit 4026
Requeued flit 5233
Requeued flit 6211
Requeued flit 4668
Requeued flit 4901
Requeued flit 5130
Requeued flit 4494
Requeued flit 6394
Requeued flit 3858
Requeued flit 783
Requeued flit 728
Requeued flit 3055
Requeued flit 4631
Requeued flit 3700
Requeued flit 3780
Requeued flit 6356
Requeued flit 2931
Requeued flit 5834
Requeued flit 5433
Requeued flit 6299
Requeued flit 3830
Requeued flit 6306
Requeued flit 3886
Requeued flit 6425
Requeued flit 4991
Requeued flit 2028
Requeued flit 5287
Requeued flit 6201
Requeued flit 5793
Requeued flit 2603
Requeued flit 3614
Requeued flit 5804
Requeued flit 2116
Requeued flit 4435
Requeued flit 4256
Requeued flit 2674
Requeued flit 4557
Requeued flit 2103
Requeued flit 6410
Requeued flit 1850
Requeued flit 2816
Requeued flit 4568
Requeued flit 6297
Requeued flit 3598
Requeued flit 5781
Requeued flit 5903
Requeued flit 4466
Requeued flit 4937
Requeued flit 5114
Requeued flit 5230
Requeued flit 6555
Requeued flit 6380
Requeued flit 4998
Requeued flit 2141
Requeued flit 4257
Requeued flit 2544
Requeued flit 3807
Requeued flit 541
Requeued flit 6402
Requeued flit 3480
Requeued flit 5881
Requeued flit 4229
Requeued flit 2511
Requeued flit 5261
Requeued flit 5220
Requeued flit 2811
Requeued flit 5776
Requeued flit 6240
Requeued flit 6593
Requeued flit 2737
Requeued flit 4876
Requeued flit 6484
Requeued flit 3894
Requeued flit 4419
Requeued flit 5401
Requeued flit 5294
Requeued flit 1754
Requeued flit 6268
Requeued flit 4495
Requeued flit 1623
Requeued flit 4283
Requeued flit 6281
Requeued flit 4411
Requeued flit 1931
Requeued flit 5370
Requeued flit 2897
Requeued flit 5157
Requeued flit 4513
Requeued flit 5109
Requeued flit 2619
Requeued flit 6197
Requeued flit 5055
Requeued flit 6438
Requeued flit 4134
Requeued flit 4137
Requeued flit 3128
Requeued flit 1791
Requeued flit 3241
Requeued flit 6506
Requeued flit 5301
Requeued flit 2375
Requeued flit 2618
Requeued flit 5077
Requeued flit 6693
Requeued flit 5825
Requeued flit 2328
Requeued flit 1853
Requeued flit 3932
Requeued flit 6066
Requeued flit 5099
Requeued flit 3821
Requeued flit 3881
Requeued flit 6541
Requeued flit 3739
Requeued flit 6490
Requeued flit 6547
Requeued flit 6433
Requeued flit 6613
Requeued flit 4481
Requeued flit 5632
Requeued flit 6382
Requeued flit 3898
Requeued flit 5237
Requeued flit 6504
Requeued flit 4784
Requeued flit 5693
Requeued flit 4955
Requeued flit 4410
Requeued flit 751
Requeued flit 6105
Requeued flit 2210
Requeued flit 4446
Requeued flit 6526
Requeued flit 5162
Requeued flit 1536
Requeued flit 2639
Requeued flit 4108
Requeued flit 6239
Requeued flit 5376
Requeued flit 6766
Requeued flit 6485
Requeued flit 6009
Requeued flit 2069
Requeued flit 6600
Requeued flit 3169
Requeued flit 5962
Requeued flit 4766
Requeued flit 4652
Requeued flit 2191
Requeued flit 3179
Requeued flit 6675
Requeued flit 4776
Requeued flit 5349
Requeued flit 2319
Requeued flit 6503
Requeued flit 2912
Requeued flit 1479
Requeued flit 3400
Requeued flit 3515
Requeued flit 2587
Requeued flit 1918
Requeued flit 4917
Requeued flit 3694
Requeued flit 3040
Requeued flit 4973
Requeued flit 4048
Requeued flit 4981
Requeued flit 3376
Requeued flit 4242
Requeued flit 5901
Requeued flit 3327
Requeued flit 6674
Requeued flit 5917
Requeued flit 4845
Requeued flit 2373
Requeued flit 4787
Requeued flit 5467
Requeued flit 5243
Requeued flit 3919
Requeued flit 4619
Requeued flit 4896
Requeued flit 4797
Requeued flit 5073
Requeued flit 5153
Requeued flit 3819
Requeued flit 4457
Requeued flit 4105
Requeued flit 2518
Requeued flit 5833
Requeued flit 2935
Requeued flit 2967
Requeued flit 1633
Requeued flit 2182
Requeued flit 5275
Requeued flit 1788
Requeued flit 6189
Requeued flit 4534
Requeued flit 2028
Requeued flit 4713
Requeued flit 4715
Requeued flit 2116
Requeued flit 3605
Requeued flit 5760
Requeued flit 2490
Requeued flit 6802
Requeued flit 2299
Requeued flit 6750
Requeued flit 6279
Requeued flit 4292
Requeued flit 1182
Requeued flit 1718
Requeued flit 1427
Requeued flit 5681
Requeued flit 3668
Requeued flit 6354
Requeued flit 4690
Requeued flit 1836
Requeued flit 5834
Requeued flit 6659
Requeued flit 2022
Requeued flit 4486
Requeued flit 1857
Requeued flit 4362
Requeued flit 6682
Requeued flit 1478
Requeued flit 5242
Requeued flit 4834
Requeued flit 4535
Requeued flit 6104
Requeued flit 3834
Requeued flit 2921
Requeued flit 1629
Requeued flit 5036
Requeued flit 6299
Requeued flit 3431
Requeued flit 6993
Requeued flit 4701
Requeued flit 2535
Requeued flit 2015
Requeued flit 6946
Requeued flit 5444
Requeued flit 4997
Requeued flit 6726
Requeued flit 4308
Requeued flit 5515
Requeued flit 3017
Requeued flit 4606
Requeued flit 5304
Requeued flit 3866
Requeued flit 3143
Requeued flit 2777
Requeued flit 4629
Requeued flit 2078
Requeued flit 4978
Requeued flit 5086
Requeued flit 2980
Requeued flit 748
Requeued flit 2106
Requeued flit 4178
Requeued flit 5206
Requeued flit 5988
Requeued flit 4751
Requeued flit 2940
Requeued flit 6818
Requeued flit 4637
Requeued flit 4113
Requeued flit 5666
Requeued flit 3537
Requeued flit 6882
Requeued flit 6017
Requeued flit 6776
Requeued flit 3603
Requeued flit 5912
Requeued flit 2776
Requeued flit 7012
Requeued flit 6442
Requeued flit 1021
Requeued flit 4722
Requeued flit 1638
Requeued flit 6904
Requeued flit 3563
Requeued flit 6272
Requeued flit 2422
Requeued flit 4615
Requeued flit 4796
Requeued flit 3890
Requeued flit 480
Requeued flit 6287
Requeued flit 5334
Requeued flit 5485
Requeued flit 4398
Requeued flit 2012
Requeued flit 6768
Requeued flit 4875
Requeued flit 5783
Requeued flit 1741
Requeued flit 4533
Requeued flit 6955
Requeued flit 2140
Requeued flit 2495
Requeued flit 3408
Requeued flit 7139
Requeued flit 5470
Requeued flit 6402
Requeued flit 3310
Requeued flit 1663
Requeued flit 2282
Requeued flit 5032
Requeued flit 2526
Requeued flit 3718
Requeued flit 6876
Requeued flit 3420
Requeued flit 4696
Requeued flit 5112
Requeued flit 4832
Requeued flit 4835
Requeued flit 5509
Requeued flit 4775
Requeued flit 1754
Requeued flit 1801
Requeued flit 2956
Requeued flit 5639
Requeued flit 3952
Requeued flit 6398
Requeued flit 3916
Requeued flit 2274
Requeued flit 4966
Requeued flit 3464
Requeued flit 6862
Requeued flit 7205
Requeued flit 3627
Requeued flit 5025
Requeued flit 7093
Requeued flit 3750
Requeued flit 6346
Requeued flit 5826
Requeued flit 3810
Requeued flit 4047
Requeued flit 7222
Requeued flit 4235
Requeued flit 7175
Requeued flit 6674
Requeued flit 2435
Requeued flit 7008
Requeued flit 6443
Requeued flit 4410
Requeued flit 1689
Requeued flit 7254
Requeued flit 4792
Requeued flit 3870
Requeued flit 4867
Requeued flit 4809
Requeued flit 3966
Requeued flit 4740
Requeued flit 5650
Requeued flit 6526
Requeued flit 3830
Requeued flit 1621
Requeued flit 4753
Requeued flit 2069
Requeued flit 4877
Requeued flit 4993
Requeued flit 4060
Requeued flit 6947
Requeued flit 5051
Requeued flit 4482
Requeued flit 2722
Requeued flit 1975
Requeued flit 3176
Requeued flit 4080
Requeued flit 3133
Requeued flit 5524
Requeued flit 5071
Requeued flit 5034
Requeued flit 7092
Requeued flit 4902
Requeued flit 1775
Requeued flit 1576
Requeued flit 2684
Requeued flit 4193
Requeued flit 5372
Requeued flit 1500
Requeued flit 2352
Requeued flit 7104
Requeued flit 5615
Requeued flit 6484
Requeued flit 5840
Requeued flit 7220
Requeued flit 3336
Requeued flit 2768
Requeued flit 3117
Requeued flit 5225
Requeued flit 7117
Requeued flit 5565
Requeued flit 2022
Requeued flit 3555
Requeued flit 6908
Requeued flit 6620
Requeued flit 3011
Requeued flit 3455
Requeued flit 3018
Requeued flit 2262
Requeued flit 7309
Requeued flit 6277
Requeued flit 4679
Requeued flit 4592
Requeued flit 5422
Requeued flit 4008
Requeued flit 7098
Requeued flit 4982
Requeued flit 4960
Requeued flit 3049
Requeued flit 4582
Requeued flit 6659
Requeued flit 7396
Requeued flit 7172
Requeued flit 7061
Requeued flit 6025
Requeued flit 7353
Requeued flit 7412
Requeued flit 6619
Requeued flit 4377
Requeued flit 4675
Requeued flit 5059
Requeued flit 7142
Requeued flit 6584
Requeued flit 5199
Requeued flit 3688
Requeued flit 5769
Requeued flit 5681
Requeued flit 3694
Requeued flit 5418
Requeued flit 6588
Requeued flit 3824
Requeued flit 2931
Requeued flit 3484
Requeued flit 7282
Requeued flit 3714
Requeued flit 6189
Requeued flit 2015
Requeued flit 5285
Requeued flit 4127
Requeued flit 7410
Requeued flit 5746
Requeued flit 1021
Requeued flit 4252
Requeued flit 3595
Requeued flit 5299
Requeued flit 5580
Requeued flit 6272
Requeued flit 2858
Requeued flit 4850
Requeued flit 2863
Requeued flit 4523
Requeued flit 3300
Requeued flit 3092
Requeued flit 5939
Requeued flit 7268
Requeued flit 7380
Requeued flit 4225
Requeued flit 3368
Requeued flit 5988
Requeued flit 5739
Requeued flit 1961
Requeued flit 6147
Requeued flit 1813
Requeued flit 7007
Requeued flit 6269
Requeued flit 5050
Requeued flit 2730
Requeued flit 2495
Requeued flit 7482
Requeued flit 2725
Requeued flit 2274
Requeued flit 7089
Requeued flit 3456
Requeued flit 5597
Requeued flit 1549
Requeued flit 1553
Requeued flit 2751
Requeued flit 6692
Requeued flit 3803
Requeued flit 2060
Requeued flit 6010
Requeued flit 7281
Requeued flit 5788
Requeued flit 3277
Requeued flit 7174
Requeued flit 7527
Requeued flit 1800
Requeued flit 5567
Requeued flit 5802
Requeued flit 6904
Requeued flit 5980
Requeued flit 2186
Requeued flit 2587
Requeued flit 1767
Requeued flit 3461
Requeued flit 3937
Requeued flit 5198
Requeued flit 6753
Requeued flit 4216
Requeued flit 3931
Requeued flit 6002
Requeued flit 6648
Requeued flit 4980
Requeued flit 3642
Requeued flit 7562
Requeued flit 4930
Requeued flit 5274
Requeued flit 2654
Requeued flit 7577
Requeued flit 7064
Requeued flit 3449
Requeued flit 7468
Requeued flit 4019
Requeued flit 7243
Requeued flit 3674
Requeued flit 7361
Requeued flit 2078
Requeued flit 5365
Requeued flit 4748
Requeued flit 6807
Requeued flit 3148
Requeued flit 6336
Requeued flit 5278
Requeued flit 5498
Requeued flit 5544
Requeued flit 1561
Requeued flit 5834
Requeued flit 6301
Requeued flit 4403
Requeued flit 6135
Requeued flit 7118
Requeued flit 6780
Requeued flit 7520
Requeued flit 3012
Requeued flit 7700
Requeued flit 5861
Requeued flit 5685
Requeued flit 6567
Requeued flit 6796
Requeued flit 7656
Requeued flit 4715
Requeued flit 5361
Requeued flit 7721
Requeued flit 2866
Requeued flit 6407
Requeued flit 6526
Requeued flit 3756
Requeued flit 3556
Requeued flit 5547
Requeued flit 5947
Requeued flit 4457
Requeued flit 4636
Requeued flit 7510
Requeued flit 5955
Requeued flit 7684
Requeued flit 2711
Requeued flit 7058
Requeued flit 7400
Requeued flit 3547
Requeued flit 6842
Requeued flit 5297
Requeued flit 5804
Requeued flit 5811
Requeued flit 3446
Requeued flit 5034
Requeued flit 7257
Requeued flit 5136
Requeued flit 2299
Requeued flit 6693
Requeued flit 7094
Requeued flit 6121
Requeued flit 3914
Requeued flit 6368
Requeued flit 6762
Requeued flit 7677
Requeued flit 6882
Requeued flit 5217
Requeued flit 6141
Requeued flit 5396
Requeued flit 7701
Requeued flit 7015
Requeued flit 4482
Requeued flit 1235
Requeued flit 3595
Requeued flit 6966
Requeued flit 5819
Requeued flit 4679
Requeued flit 4150
Requeued flit 7720
Requeued flit 6405
Requeued flit 5141
Requeued flit 2508
Requeued flit 5881
Requeued flit 6172
Requeued flit 5832
Requeued flit 6816
Requeued flit 2210
Requeued flit 6237
Requeued flit 4691
Requeued flit 3879
Requeued flit 3774
Requeued flit 3050
Requeued flit 3707
Requeued flit 4349
Requeued flit 7801
Requeued flit 7346
Requeued flit 7869
Requeued flit 6257
Requeued flit 6083
Requeued flit 7874
Requeued flit 7815
Requeued flit 2029
Requeued flit 4893
Requeued flit 7413
Requeued flit 3925
Requeued flit 1301
Requeued flit 2905
Requeued flit 3354
Requeued flit 5073
Requeued flit 4277
Requeued flit 5536
Requeued flit 5996
Requeued flit 4293
Requeued flit 5660
Requeued flit 2992
Requeued flit 6069
Requeued flit 7800
Requeued flit 7285
Requeued flit 6664
Requeued flit 2546
Requeued flit 1961
Requeued flit 5743
Requeued flit 7817
Requeued flit 1760
Requeued flit 4202
Requeued flit 3794
Requeued flit 5517
Requeued flit 7830
Requeued flit 541
Requeued flit 2563
Requeued flit 7778
Requeued flit 3696
Requeued flit 6171
Requeued flit 7905
Requeued flit 5719
Requeued flit 7861
Requeued flit 7804
Requeued flit 5678
Requeued flit 7927
Requeued flit 3778
Requeued flit 7929
Requeued flit 4832
Requeued flit 5176
Requeued flit 6441
Requeued flit 5131
Requeued flit 7194
Requeued flit 3682
Requeued flit 3802
Requeued flit 5316
Requeued flit 2437
Requeued flit 5086
Requeued flit 4625
Requeued flit 7785
Requeued flit 5337
Requeued flit 5619
Requeued flit 2990
Requeued flit 1576
Requeued flit 6128
Requeued flit 2297
Requeued flit 3328
Requeued flit 5561
Requeued flit 7692
Requeued flit 3337
Requeued flit 5508
Requeued flit 3900
Requeued flit 7990
Requeued flit 3398
Requeued flit 2319
Requeued flit 7361
Requeued flit 5760
Requeued flit 6850
Requeued flit 3510
Requeued flit 4081
Requeued flit 8003
Requeued flit 6277
Requeued flit 5470
Requeued flit 1700
Requeued flit 7376
Requeued flit 4834
Requeued flit 7902
Requeued flit 6336
Requeued flit 2225
Requeued flit 4181
Requeued flit 7967
Requeued flit 6009
Requeued flit 3159
Requeued flit 3368
Requeued flit 2825
Requeued flit 1790
Requeued flit 5043
Requeued flit 8031
Requeued flit 8091
Requeued flit 6780
Requeued flit 6316
Requeued flit 7756
Requeued flit 5427
Requeued flit 4949
Requeued flit 3014
Requeued flit 6207
Requeued flit 7189
Requeued flit 3282
Requeued flit 2097
Requeued flit 8004
Requeued flit 4268
Requeued flit 6347
Requeued flit 6757
Requeued flit 7442
Requeued flit 8022
Requeued flit 7737
Requeued flit 1116
Requeued flit 3763
Requeued flit 4957
Requeued flit 2772
Requeued flit 8098
Requeued flit 7983
Requeued flit 6729
Requeued flit 8162
Requeued flit 8105
Requeued flit 5916
Requeued flit 8050
Requeued flit 8115
Requeued flit 5981
Requeued flit 2642
Requeued flit 6042
Requeued flit 1405
Requeued flit 5818
Requeued flit 4600
Requeued flit 6691
Requeued flit 5711
Requeued flit 6230
Requeued flit 5318
Requeued flit 4866
Requeued flit 5778
Requeued flit 6243
Requeued flit 7623
Requeued flit 8090
Requeued flit 3942
Requeued flit 4240
Requeued flit 6721
Requeued flit 3660
Requeued flit 5735
Requeued flit 3228
Requeued flit 4012
Requeued flit 7304
Requeued flit 5567
Requeued flit 3240
Requeued flit 2657
Requeued flit 5793
Requeued flit 7479
Requeued flit 2562
Requeued flit 5357
Requeued flit 7832
Requeued flit 6364
Requeued flit 5821
Requeued flit 3334
Requeued flit 4740
Requeued flit 7500
Requeued flit 1376
Requeued flit 6060
Requeued flit 3774
Requeued flit 6946
Requeued flit 7515
Requeued flit 3892
Requeued flit 1962
Requeued flit 5184
Requeued flit 8112
Requeued flit 6626
Requeued flit 3522
Requeued flit 8231
Requeued flit 4177
Requeued flit 4838
Requeued flit 4371
Requeued flit 7550
Requeued flit 1293
Requeued flit 6699
Requeued flit 7146
Requeued flit 4242
Requeued flit 5562
Requeued flit 6301
Requeued flit 2819
Requeued flit 6539
Requeued flit 5495
Requeued flit 8259
Requeued flit 4931
Requeued flit 5731
Requeued flit 4408
Requeued flit 8096
Requeued flit 6136
Requeued flit 6199
Requeued flit 7235
Requeued flit 3449
Requeued flit 5232
Requeued flit 8044
Requeued flit 8219
Requeued flit 8113
Requeued flit 3845
Requeued flit 6906
Requeued flit 2500
Requeued flit 3969
Requeued flit 6217
Requeued flit 2742
Requeued flit 5191
Requeued flit 6748
Requeued flit 7897
Requeued flit 4952
Requeued flit 4162
Requeued flit 4050
Requeued flit 6295
Requeued flit 4815
Requeued flit 6597
Requeued flit 8314
Requeued flit 8260
Requeued flit 6256
Requeued flit 7817
Requeued flit 4132
Requeued flit 7418
Requeued flit 3595
Requeued flit 5923
Requeued flit 4304
Requeued flit 8055
Requeued flit 1503
Requeued flit 4383
Requeued flit 7714
Requeued flit 8182
Requeued flit 5095
Requeued flit 7208
Requeued flit 4802
Requeued flit 4260
Requeued flit 5424
Requeued flit 5548
Requeued flit 8425
Requeued flit 8426
Requeued flit 3543
Requeued flit 2764
Requeued flit 5961
Requeued flit 7804
Requeued flit 8051
Requeued flit 8334
Requeued flit 7413
Requeued flit 2783
Requeued flit 6560
Requeued flit 6623
Requeued flit 4264
Requeued flit 6099
Requeued flit 7138
Requeued flit 4986
Requeued flit 5413
Requeued flit 8406
Requeued flit 5795
Requeued flit 7666
Requeued flit 2324
Requeued flit 8367
Requeued flit 8373
Requeued flit 8442
Requeued flit 7463
Requeued flit 7350
Requeued flit 8105
Requeued flit 2549
Requeued flit 3676
Requeued flit 8050
Requeued flit 7651
Requeued flit 7710
Requeued flit 3968
Requeued flit 3121
Requeued flit 8347
Requeued flit 7427
Requeued flit 2594
Requeued flit 7382
Requeued flit 6175
Requeued flit 5205
Requeued flit 6589
Requeued flit 3264
Requeued flit 3872
Requeued flit 8543
Requeued flit 7743
Requeued flit 8430
Requeued flit 8374
Requeued flit 6189
Requeued flit 4827
Requeued flit 4887
Requeued flit 7292
Requeued flit 8505
Requeued flit 2379
Requeued flit 6149
Requeued flit 6376
Requeued flit 7079
Requeued flit 4086
Requeued flit 6334
Requeued flit 3718
Requeued flit 5876
Requeued flit 5316
Requeued flit 5752
Requeued flit 6640
Requeued flit 6238
Requeued flit 3713
Requeued flit 4772
Requeued flit 7984
Requeued flit 7756
Requeued flit 3017
Requeued flit 3443
Requeued flit 2243
Requeued flit 8227
Requeued flit 4375
Requeued flit 2788
Requeued flit 4671
Requeued flit 1762
Requeued flit 8004
Requeued flit 6045
Requeued flit 3333
Requeued flit 4787
Requeued flit 7313
Requeued flit 7725
Requeued flit 4715
Requeued flit 7384
Requeued flit 5836
Requeued flit 6299
Requeued flit 8608
Requeued flit 4297
Requeued flit 8091
Requeued flit 7629
Requeued flit 8508
Requeued flit 2211
Requeued flit 8224
Requeued flit 4265
Requeued flit 4973
Requeued flit 5468
Requeued flit 7999
Requeued flit 3347
Requeued flit 3461
Requeued flit 8009
Requeued flit 4686
Requeued flit 6641
Requeued flit 6808
Requeued flit 963
Requeued flit 1621
Requeued flit 6544
Requeued flit 8266
Requeued flit 2953
Requeued flit 5397
Requeued flit 8688
Requeued flit 5975
Requeued flit 7300
Requeued flit 6491
Requeued flit 7825
Requeued flit 4549
Requeued flit 6514
Requeued flit 4840
Requeued flit 5587
Requeued flit 6520
Requeued flit 4677
Requeued flit 2865
Requeued flit 2071
Requeued flit 5935
Requeued flit 7155
Requeued flit 7443
Requeued flit 7328
Requeued flit 6179
Requeued flit 8665
Requeued flit 6881
Requeued flit 2062
Requeued flit 5842
Requeued flit 5728
Requeued flit 4002
Requeued flit 7227
Requeued flit 7520
Requeued flit 2430
Requeued flit 6269
Requeued flit 2597
Requeued flit 6048
Requeued flit 5992
Requeued flit 2927
Requeued flit 6658
Requeued flit 8826
Requeued flit 6747
Requeued flit 7907
Requeued flit 8719
Requeued flit 3048
Requeued flit 8548
Requeued flit 8320
Requeued flit 4585
Requeued flit 5443
Requeued flit 6196
Requeued flit 4360
Requeued flit 5284
Requeued flit 7491
Requeued flit 7998
Requeued flit 3440
Requeued flit 6274
Requeued flit 5986
Requeued flit 8819
Requeued flit 6151
Requeued flit 6759
Requeued flit 6345
Requeued flit 8768
Requeued flit 6938
Requeued flit 4236
Requeued flit 8729
Requeued flit 7286
Requeued flit 8731
Requeued flit 6548
Requeued flit 8442
Requeued flit 8848
Requeued flit 8796
Requeued flit 8334
Requeued flit 5200
Requeued flit 8925
Requeued flit 1710
Requeued flit 2913
Requeued flit 1523
Requeued flit 7956
Requeued flit 8026
Requeued flit 7435
Requeued flit 3470
Requeued flit 8657
Requeued flit 3530
Requeued flit 8543
Requeued flit 5721
Requeued flit 2531
Requeued flit 6654
Requeued flit 5041
Requeued flit 8900
Requeued flit 8158
Requeued flit 2487
Requeued flit 7122
Requeued flit 8975
Requeued flit 8855
Requeued flit 2379
Requeued flit 6787
Requeued flit 7587
Requeued flit 4019
Requeued flit 3131
Requeued flit 3906
Requeued flit 2257
Requeued flit 5977
Requeued flit 6834
Requeued flit 4669
Requeued flit 6450
Requeued flit 6568
Requeued flit 2079
Requeued flit 8876
Requeued flit 6163
Requeued flit 6698
Requeued flit 4234
Requeued flit 5435
Requeued flit 8961
Requeued flit 6017
Requeued flit 8499
Requeued flit 8968
Requeued flit 6894
Requeued flit 2547
Requeued flit 7934
Requeued flit 6982
Requeued flit 5639
Requeued flit 6392
Requeued flit 4023
Requeued flit 7771
Requeued flit 6267
Requeued flit 5529
Requeued flit 3293
Requeued flit 6110
Requeued flit 6521
Requeued flit 6755
Requeued flit 8945
Requeued flit 7847
Requeued flit 5156
Requeued flit 4115
Requeued flit 4103
Requeued flit 4694
Requeued flit 8891
Requeued flit 4985
Requeued flit 7621
Requeued flit 9013
Requeued flit 5669
Requeued flit 7058
Requeued flit 7865
Requeued flit 3893
Requeued flit 4709
Requeued flit 8380
Requeued flit 3064
Requeued flit 8914
Requeued flit 6501
Requeued flit 2734
Requeued flit 7420
Requeued flit 9040
Requeued flit 6498
Requeued flit 8004
Requeued flit 7600
Requeued flit 6566
Requeued flit 7949
Requeued flit 8286
Requeued flit 8817
Requeued flit 7725
Requeued flit 783
Requeued flit 8995
Requeued flit 8468
Requeued flit 7382
Requeued flit 7963
Requeued flit 2703
Requeued flit 8608
Requeued flit 6824
Requeued flit 9016
Requeued flit 8615
Requeued flit 6308
Requeued flit 6672
Requeued flit 6199
Requeued flit 9140
Requeued flit 9143
Requeued flit 4950
Requeued flit 9150
Requeued flit 7709
Requeued flit 7428
Requeued flit 9105
Requeued flit 4216
Requeued flit 8070
Requeued flit 3334
Requeued flit 5432
Requeued flit 8882
Requeued flit 2639
Requeued flit 6649
Requeued flit 2324
Requeued flit 2247
Requeued flit 8905
Requeued flit 8505
Requeued flit 8278
Requeued flit 3816
Requeued flit 7884
Requeued flit 2352
Requeued flit 2672
Requeued flit 6040
Requeued flit 6102
Requeued flit 9042
Requeued flit 4271
Requeued flit 4662
Requeued flit 7088
Requeued flit 6283
Requeued flit 8415
Requeued flit 4049
Requeued flit 3300
Requeued flit 6545
Requeued flit 8796
Requeued flit 6027
Requeued flit 6619
Requeued flit 5514
Requeued flit 7016
Requeued flit 1754
Requeued flit 6505
Requeued flit 6684
Requeued flit 7769
Requeued flit 5974
Requeued flit 6853
Requeued flit 3127
Requeued flit 7196
Requeued flit 3514
Requeued flit 6400
Requeued flit 6225
Requeued flit 1251
Requeued flit 1525
Requeued flit 6182
Requeued flit 2828
Requeued flit 5881
Requeued flit 7209
Requeued flit 8768
Requeued flit 6233
Requeued flit 9229
Requeued flit 5550
Requeued flit 6537
Requeued flit 4578
Requeued flit 8548
Requeued flit 3062
Requeued flit 6832
Requeued flit 8967
Requeued flit 6837
Requeued flit 8736
Requeued flit 7014
Requeued flit 2068
Requeued flit 5070
Requeued flit 6685
Requeued flit 6331
Requeued flit 9211
Requeued flit 8814
Requeued flit 9101
Requeued flit 5069
Requeued flit 6754
Requeued flit 7954
Requeued flit 2200
Requeued flit 2606
Requeued flit 5381
Requeued flit 7345
Requeued flit 6065
Requeued flit 3821
Requeued flit 9235
Requeued flit 4473
Requeued flit 8684
Requeued flit 9364
Requeued flit 4601
Requeued flit 6508
Requeued flit 6121
Requeued flit 9156
Requeued flit 955
Requeued flit 3170
Requeued flit 2079
Requeued flit 2457
Requeued flit 9048
Requeued flit 2575
Requeued flit 5997
Requeued flit 3875
Requeued flit 7383
Requeued flit 7158
Requeued flit 9117
Requeued flit 6119
Requeued flit 6007
Requeued flit 7970
Requeued flit 6663
Requeued flit 6890
Requeued flit 6669
Requeued flit 9078
Requeued flit 7123
Requeued flit 9362
Requeued flit 7463
Requeued flit 4978
Requeued flit 6842
Requeued flit 6740
Requeued flit 6569
Requeued flit 2265
Requeued flit 5715
Requeued flit 8933
Requeued flit 3575
Requeued flit 4838
Requeued flit 2689
Requeued flit 8585
Requeued flit 6806
Requeued flit 9333
Requeued flit 5487
Requeued flit 8661
Requeued flit 7328
Requeued flit 6650
Requeued flit 5409
Requeued flit 8731
Requeued flit 8497
Requeued flit 6246
Requeued flit 9076
Requeued flit 9419
Requeued flit 7006
Requeued flit 6492
Requeued flit 9150
Requeued flit 3069
Requeued flit 5130
Requeued flit 4611
Requeued flit 9437
Requeued flit 6745
Requeued flit 6337
Requeued flit 2544
Requeued flit 3033
Requeued flit 7602
Requeued flit 4212
Requeued flit 6457
Requeued flit 9164
Requeued flit 1942
Requeued flit 6055
Requeued flit 9334
Requeued flit 6773
Requeued flit 4574
Requeued flit 6064
Requeued flit 9468
Requeued flit 8843
Requeued flit 6722
Requeued flit 9033
Requeued flit 5077
Requeued flit 7942
Requeued flit 6216
Requeued flit 4789
Requeued flit 9551
Requeued flit 7601
Requeued flit 5188
Requeued flit 6156
Requeued flit 5022
Requeued flit 8298
Requeued flit 1353
Requeued flit 2225
Requeued flit 9516
Requeued flit 5099
Requeued flit 6200
Requeued flit 4707
Requeued flit 6774
Requeued flit 3659
Requeued flit 9242
Requeued flit 9243
Requeued flit 8624
Requeued flit 2603
Requeued flit 9483
Requeued flit 7357
Requeued flit 4397
Requeued flit 4497
Requeued flit 6561
Requeued flit 6414
Requeued flit 6690
Requeued flit 9158
Requeued flit 7775
Requeued flit 5474
Requeued flit 541
Requeued flit 3117
Requeued flit 632
Requeued flit 9277
Requeued flit 4047
Requeued flit 2479
Requeued flit 6936
Requeued flit 2649
Requeued flit 7002
Requeued flit 9532
Requeued flit 3662
Requeued flit 4754
Requeued flit 9545
Requeued flit 3241
Requeued flit 9605
Requeued flit 8466
Requeued flit 7900
Requeued flit 5671
Requeued flit 6864
Requeued flit 3361
Requeued flit 7901
Requeued flit 6114
Requeued flit 6418
Requeued flit 6302
Requeued flit 6487
Requeued flit 5280
Requeued flit 6312
Requeued flit 6949
Requeued flit 6143
Requeued flit 4483
Requeued flit 6204
Requeued flit 1726
Requeued flit 8859
Requeued flit 9655
Requeued flit 6794
Requeued flit 4816
Requeued flit 7080
Requeued flit 6743
Requeued flit 955
Requeued flit 8408
Requeued flit 4561
Requeued flit 9672
Requeued flit 4389
Requeued flit 1132
Requeued flit 5081
Requeued flit 4293
Requeued flit 3148
Requeued flit 5748
Requeued flit 9562
Requeued flit 6484
Requeued flit 6471
Requeued flit 8138
Requeued flit 7044
Requeued flit 9121
Requeued flit 9689
Requeued flit 3653
Requeued flit 5388
Requeued flit 6428
Requeued flit 6889
Requeued flit 9418
Requeued flit 9757
Requeued flit 8796
Requeued flit 9706
Requeued flit 6616
Requeued flit 9542
Requeued flit 8167
Requeued flit 1754
Requeued flit 5780
Requeued flit 6097
Requeued flit 5494
Requeued flit 3496
Requeued flit 6482
Requeued flit 7347
Requeued flit 5449
Requeued flit 4154
Requeued flit 5143
Requeued flit 6056
Requeued flit 3169
Requeued flit 1999
Requeued flit 4353
Requeued flit 8609
Requeued flit 5841
Requeued flit 4467
Requeued flit 7515
Requeued flit 9696
Requeued flit 9758
Requeued flit 9078
Requeued flit 7579
Requeued flit 2487
Requeued flit 9536
Requeued flit 7469
Requeued flit 6033
Requeued flit 2661
Requeued flit 3019
Requeued flit 7650
Requeued flit 9660
Requeued flit 5129
Requeued flit 6562
Requeued flit 4038
Requeued flit 6749
Requeued flit 6578
Requeued flit 9849
Requeued flit 4505
Requeued flit 5230
Requeued flit 2990
Requeued flit 7266
Requeued flit 7568
Requeued flit 9857
Requeued flit 5891
Requeued flit 9801
Requeued flit 3543
Requeued flit 8723
Requeued flit 6184
Requeued flit 5616
Requeued flit 3300
Requeued flit 9810
Requeued flit 5497
Requeued flit 8322
Requeued flit 6945
Requeued flit 9637
Requeued flit 7005
Requeued flit 6492
Requeued flit 7350
Requeued flit 9826
Requeued flit 6556
Requeued flit 8452
Requeued flit 7588
Requeued flit 9771
Requeued flit 9833
Requeued flit 1786
Requeued flit 2175
Requeued flit 1638
Requeued flit 4692
Requeued flit 4595
Requeued flit 5110
Requeued flit 9848
Requeued flit 6344
Requeued flit 6409
Requeued flit 2771
Requeued flit 5073
Requeued flit 6301
Requeued flit 4757
Requeued flit 6071
Requeued flit 8158
Requeued flit 7581
Requeued flit 9944
Requeued flit 9320
Requeued flit 9959
Requeued flit 6454
Requeued flit 4680
Requeued flit 6166
Requeued flit 9909
Requeued flit 5416
Requeued flit 8356
Requeued flit 6342
Requeued flit 7724
Requeued flit 6702
Requeued flit 7731
Requeued flit 8375
Requeued flit 9012
Requeued flit 4659
Requeued flit 6619
Requeued flit 1643
Requeued flit 8107
Requeued flit 9768
Requeued flit 5806
Requeued flit 9315
Requeued flit 8639
Requeued flit 6458
Requeued flit 7366
Requeued flit 9842
Requeued flit 8759
Requeued flit 6699
Requeued flit 5827
Requeued flit 9799
Requeued flit 5109
Requeued flit 5614
Requeued flit 5042
Requeued flit 6119
Requeued flit 4297
Requeued flit 9931
Requeued flit 9871
Requeued flit 6369
Requeued flit 8377
Requeued flit 5287
Requeued flit 8159
Requeued flit 10002
Requeued flit 9649
Requeued flit 5515
Requeued flit 6954
Requeued flit 6250
Requeued flit 3624
Requeued flit 2523
Requeued flit 7031
Requeued flit 1264
Requeued flit 9164
Requeued flit 3869
Requeued flit 9917
Requeued flit 6229
Requeued flit 7968
Requeued flit 6761
Requeued flit 6302
Requeued flit 7120
Requeued flit 7872
Requeued flit 9535
Requeued flit 9147
Requeued flit 7253
Requeued flit 955
Requeued flit 4271
Requeued flit 8173
Requeued flit 8588
Requeued flit 8707
Requeued flit 10143
Requeued flit 5659
Requeued flit 4342
Requeued flit 3561
Requeued flit 6767
Requeued flit 3478
Requeued flit 6888
Requeued flit 4474
Requeued flit 5565
Requeued flit 10109
Requeued flit 5679
Requeued flit 7015
Requeued flit 8277
Requeued flit 5888
Requeued flit 9949
Requeued flit 4752
Requeued flit 5979
Requeued flit 3677
Requeued flit 5072
Requeued flit 9266
Requeued flit 4281
Requeued flit 6579
Requeued flit 541
Requeued flit 4915
Requeued flit 3334
Requeued flit 7907
Requeued flit 3095
Requeued flit 7329
Requeued flit 10038
Requeued flit 4323
Requeued flit 4707
Requeued flit 5100
Requeued flit 6886
Requeued flit 6731
Requeued flit 10172
Requeued flit 6961
Requeued flit 4136
Requeued flit 3121
Requeued flit 10185
Requeued flit 7248
Requeued flit 9214
Requeued flit 3299
Requeued flit 9160
Requeued flit 10192
Requeued flit 783
Requeued flit 9848
Requeued flit 7263
Requeued flit 4275
Requeued flit 7957
Requeued flit 4624
Requeued flit 4742
Requeued flit 9857
Requeued flit 9115
Requeued flit 8138
Requeued flit 9923
Requeued flit 7798
Requeued flit 8555
Requeued flit 4590
Requeued flit 10226
Requeued flit 6199
Requeued flit 8271
Requeued flit 9358
Requeued flit 4019
Requeued flit 8804
Requeued flit 8053
Requeued flit 8576
Requeued flit 9443
Requeued flit 6953
Requeued flit 3682
Requeued flit 5687
Requeued flit 7892
Requeued flit 7030
Requeued flit 10256
Requeued flit 8940
Requeued flit 9974
Requeued flit 6869
Requeued flit 8949
Requeued flit 6061
Requeued flit 10036
Requeued flit 6765
Requeued flit 1741
Requeued flit 3484
Requeued flit 6305
Requeued flit 5448
Requeued flit 5794
Requeued flit 10348
Requeued flit 9536
Requeued flit 10293
Requeued flit 6789
Requeued flit 9542
Requeued flit 2175
Requeued flit 3562
Requeued flit 9660
Requeued flit 10308
Requeued flit 8934
Requeued flit 7717
Requeued flit 9032
Requeued flit 6921
Requeued flit 9672
Requeued flit 3932
Requeued flit 6523
Requeued flit 7277
Requeued flit 3885
Requeued flit 3063
Requeued flit 7459
Requeued flit 10344
Requeued flit 6615
Requeued flit 7984
Requeued flit 6546
Requeued flit 4137
Requeued flit 10299
Requeued flit 6206
Requeued flit 7477
Requeued flit 6658
Requeued flit 9322
Requeued flit 5656
Requeued flit 9159
Requeued flit 5432
Requeued flit 8242
Requeued flit 8013
Requeued flit 7552
Requeued flit 9735
Requeued flit 2457
Requeued flit 5091
Requeued flit 9280
Requeued flit 5642
Requeued flit 8194
Requeued flit 10391
Requeued flit 7855
Requeued flit 5555
Requeued flit 6119
Requeued flit 3943
Requeued flit 9689
Requeued flit 5729
Requeued flit 9470
Requeued flit 10106
Requeued flit 7636
Requeued flit 6903
Requeued flit 10242
Requeued flit 8807
Requeued flit 4725
Requeued flit 9492
Requeued flit 6522
Requeued flit 7139
Requeued flit 10248
Requeued flit 6507
Requeued flit 7372
Requeued flit 1251
Requeued flit 10375
Requeued flit 5022
Requeued flit 5882
Requeued flit 9106
Requeued flit 3986
Requeued flit 8533
Requeued flit 3753
Requeued flit 9917
Requeued flit 4517
Requeued flit 4467
Requeued flit 10328
Requeued flit 4985
Requeued flit 7915
Requeued flit 10213
Requeued flit 6771
Requeued flit 10521
Requeued flit 10463
Requeued flit 6257
Requeued flit 5398
Requeued flit 8918
Requeued flit 9429
Requeued flit 3118
Requeued flit 10359
Requeued flit 10537
Requeued flit 4267
Requeued flit 4669
Requeued flit 3681
Requeued flit 6673
Requeued flit 7026
Requeued flit 5138
Requeued flit 9325
Requeued flit 10433
Requeued flit 8998
Requeued flit 6867
Requeued flit 6420
Requeued flit 4472
Requeued flit 5559
Requeued flit 10517
Requeued flit 3388
Requeued flit 4063
Requeued flit 10520
Requeued flit 5225
Requeued flit 6729
Requeued flit 4360
Requeued flit 9026
Requeued flit 4953
Requeued flit 8132
Requeued flit 8992
Requeued flit 9044
Requeued flit 4995
Requeued flit 6925
Requeued flit 1525
Requeued flit 5174
Requeued flit 8946
Requeued flit 3992
Requeued flit 8887
Requeued flit 2983
Requeued flit 9346
Requeued flit 8087
Requeued flit 7739
Requeued flit 10575
Requeued flit 5286
Requeued flit 10528
Requeued flit 10530
Requeued flit 5227
[...]
Requeued flit 321360
Requeued flit 187640
Requeued flit 307476
Requeued flit 321855
Requeued flit 320623
Requeued flit 276006
Requeued flit 318660
Requeued flit 335364
Requeued flit 310626
Requeued flit 330099
Requeued flit 325570
Requeued flit 148359
Requeued flit 168694
Requeued flit 294955
Requeued flit 296732
Requeued flit 302521
Requeued flit 321015
Requeued flit 329977
Requeued flit 330703
Requeued flit 329363
Requeued flit 319645
Requeued flit 282096
Requeued flit 294228
Requeued flit 282993
Requeued flit 321603
Requeued flit 322581
Requeued flit 310435
Requeued flit 284889
Requeued flit 299709
Requeued flit 308823
Requeued flit 335288
Requeued flit 306896
Requeued flit 308505
Requeued flit 307750
Requeued flit 307073
Requeued flit 205905
Requeued flit 151226
Requeued flit 237450
Requeued flit 320225
Requeued flit 319334
Requeued flit 334021
Requeued flit 320064
Requeued flit 304416
Requeued flit 292900
Requeued flit 329132
Requeued flit 322376
Requeued flit 331054
Requeued flit 149139
Requeued flit 307300
Requeued flit 203279
Requeued flit 308373
Requeued flit 306891
Requeued flit 331906
Requeued flit 152791
Requeued flit 305578
Requeued flit 282808
Requeued flit 307043
Requeued flit 149991
Requeued flit 307929
Requeued flit 266022
Requeued flit 247296
Requeued flit 319132
Requeued flit 320164
Requeued flit 322691
Requeued flit 299815
Requeued flit 320757
Requeued flit 152117
Requeued flit 308457
Requeued flit 308207
Requeued flit 271053
Requeued flit 269717
Requeued flit 310616
Requeued flit 271594
Requeued flit 300792
Requeued flit 282281
Requeued flit 255389
Requeued flit 329412
Requeued flit 293732
Requeued flit 330364
Requeued flit 146445
Requeued flit 327857
Requeued flit 305042
Requeued flit 288078
Requeued flit 293519
Requeued flit 308180
Requeued flit 319975
Requeued flit 307141
Requeued flit 332204
Requeued flit 281933
Requeued flit 161962
Requeued flit 307233
Requeued flit 268951
Requeued flit 278265
Requeued flit 210796
Requeued flit 325871
Requeued flit 317670
Requeued flit 328625
Requeued flit 322324
Requeued flit 329823
Requeued flit 265871
Requeued flit 306296
Requeued flit 331820
Requeued flit 305414
Requeued flit 320631
Requeued flit 313453
Requeued flit 304659
Requeued flit 310195
Requeued flit 271633
Requeued flit 329791
Requeued flit 305990
Requeued flit 333691
Requeued flit 270712
Requeued flit 322457
Requeued flit 244819
Requeued flit 305658
Requeued flit 327799
Requeued flit 294780
Requeued flit 319443
Requeued flit 331958
Requeued flit 306144
Requeued flit 306272
Requeued flit 305584
Requeued flit 296678
Requeued flit 305795
Requeued flit 324676
Requeued flit 209979
Requeued flit 330312
Requeued flit 274197
Requeued flit 304932
Requeued flit 302463
Requeued flit 324491
Requeued flit 309448
Requeued flit 320122
Requeued flit 221855
Requeued flit 334121
Requeued flit 282852
Requeued flit 150604
Requeued flit 304444
Requeued flit 220322
Requeued flit 294955
Requeued flit 326084
Requeued flit 295297
Requeued flit 322141
Requeued flit 279352
Requeued flit 265639
Requeued flit 305419
Requeued flit 329363
Requeued flit 319507
Requeued flit 217508
Requeued flit 244030
Requeued flit 277733
Requeued flit 310435
Requeued flit 303401
Requeued flit 306385
Requeued flit 332485
Requeued flit 237714
Requeued flit 321893
Requeued flit 323602
Requeued flit 278950
Requeued flit 298779
Requeued flit 265573
Requeued flit 306770
Requeued flit 320076
Requeued flit 307322
Requeued flit 186586
Requeued flit 322880
Requeued flit 334402
Requeued flit 322696
Requeued flit 307905
Requeued flit 334175
Requeued flit 282528
Requeued flit 330090
Requeued flit 321011
Requeued flit 305722
Requeued flit 305845
Requeued flit 336081
Requeued flit 334312
Requeued flit 322740
Requeued flit 304796
Requeued flit 305103
Requeued flit 307352
Requeued flit 323558
Requeued flit 280505
Requeued flit 305812
Requeued flit 305923
Requeued flit 265298
Requeued flit 308823
Requeued flit 307058
Requeued flit 308457
Requeued flit 332529
Requeued flit 212178
Requeued flit 333434
Requeued flit 240713
Requeued flit 168172
Requeued flit 300232
Requeued flit 153647
Requeued flit 330244
Requeued flit 321170
Requeued flit 206359
Requeued flit 306667
Requeued flit 319256
Requeued flit 295092
Requeued flit 214297
Requeued flit 317270
Requeued flit 299351
Requeued flit 171339
Requeued flit 208683
Requeued flit 319975
Requeued flit 309058
Requeued flit 330237
Requeued flit 318942
Requeued flit 308781
Requeued flit 307706
Requeued flit 267314
Requeued flit 308329
Requeued flit 303014
Requeued flit 326039
Requeued flit 322396
Requeued flit 224813
Requeued flit 240832
Requeued flit 322963
Requeued flit 321609
Requeued flit 213485
Requeued flit 321967
Requeued flit 147526
Requeued flit 271392
Requeued flit 282424
Requeued flit 331880
Requeued flit 181632
Requeued flit 314402
Requeued flit 165626
Requeued flit 227510
Requeued flit 303576
Requeued flit 329863
Requeued flit 330042
Requeued flit 319348
Requeued flit 330188
Requeued flit 294208
Requeued flit 265871
Requeued flit 300125
Requeued flit 320286
Requeued flit 322082
Requeued flit 321559
Requeued flit 167406
Requeued flit 321312
Requeued flit 320089
Requeued flit 321260
Requeued flit 216233
Requeued flit 305594
Requeued flit 273183
Requeued flit 305775
Requeued flit 153771
Requeued flit 239526
Requeued flit 155470
Requeued flit 278614
Requeued flit 292936
Requeued flit 293078
Requeued flit 325393
Requeued flit 277399
Requeued flit 321279
Requeued flit 249767
Requeued flit 305167
Requeued flit 330760
Requeued flit 307856
Requeued flit 308960
Requeued flit 336030
Requeued flit 307804
Requeued flit 253393
Requeued flit 247296
Requeued flit 323080
Requeued flit 330262
Requeued flit 206480
Requeued flit 335662
Requeued flit 199093
Requeued flit 321095
Requeued flit 298685
Requeued flit 318541
Requeued flit 309251
Requeued flit 279358
Requeued flit 321018
Requeued flit 319334
Requeued flit 291934
Requeued flit 274357
Requeued flit 167209
Requeued flit 304535
Requeued flit 304595
Requeued flit 321850
Requeued flit 150917
Requeued flit 307659
Requeued flit 335995
Requeued flit 322747
Requeued flit 334175
Requeued flit 245930
Requeued flit 307506
Requeued flit 308457
Requeued flit 318564
Requeued flit 324637
Requeued flit 304787
Requeued flit 164570
Requeued flit 304444
Requeued flit 332208
Requeued flit 317618
Requeued flit 265639
Requeued flit 296185
Requeued flit 303520
Requeued flit 309442
Requeued flit 320639
Requeued flit 305068
Requeued flit 307682
Requeued flit 306316
Requeued flit 309448
Requeued flit 330099
Requeued flit 150471
Requeued flit 335901
Requeued flit 283294
Requeued flit 241462
Requeued flit 309452
Requeued flit 205810
Requeued flit 320942
Requeued flit 303014
Requeued flit 270973
Requeued flit 209487
Requeued flit 319793
Requeued flit 295094
Requeued flit 272043
Requeued flit 324784
Requeued flit 181499
Requeued flit 271392
Requeued flit 305440
Requeued flit 331880
Requeued flit 330376
Requeued flit 330587
Requeued flit 242631
Requeued flit 277463
Requeued flit 305971
Requeued flit 330792
Requeued flit 323247
Requeued flit 330188
Requeued flit 330050
Requeued flit 328330
Requeued flit 233255
Requeued flit 284889
Requeued flit 329274
Requeued flit 333178
Requeued flit 308038
Requeued flit 320131
Requeued flit 325927
Requeued flit 319134
Requeued flit 321477
Requeued flit 255687
Requeued flit 277333
Requeued flit 306101
Requeued flit 328666
Requeued flit 168228
Requeued flit 330509
Requeued flit 330703
Requeued flit 298313
Requeued flit 201353
Requeued flit 224502
Requeued flit 200570
Requeued flit 320803
Requeued flit 306088
Requeued flit 298339
Requeued flit 333504
Requeued flit 265871
Requeued flit 321962
Requeued flit 167077
Requeued flit 305431
Requeued flit 144087
Requeued flit 205519
Requeued flit 241762
Requeued flit 335155
Requeued flit 307854
Requeued flit 298354
Requeued flit 149991
Requeued flit 304330
Requeued flit 155970
Requeued flit 245918
Requeued flit 186586
Requeued flit 214105
Requeued flit 181772
Requeued flit 330471
Requeued flit 216436
Requeued flit 282006
Requeued flit 249823
Requeued flit 321139
Requeued flit 329591
Requeued flit 330845
Requeued flit 324761
Requeued flit 328592
Requeued flit 307184
Requeued flit 253730
Requeued flit 307992
Requeued flit 310277
Requeued flit 307578
Requeued flit 330439
Requeued flit 325945
Requeued flit 306720
Requeued flit 283630
Requeued flit 212793
Requeued flit 333035
Requeued flit 260829
Requeued flit 284669
Requeued flit 308171
Requeued flit 181079
Requeued flit 279281
Requeued flit 331360
Requeued flit 303659
Requeued flit 265639
Requeued flit 322604
Requeued flit 330433
Requeued flit 309489
Requeued flit 223704
Requeued flit 216972
Requeued flit 251417
Requeued flit 329145
Requeued flit 321394
Requeued flit 305940
Requeued flit 282913
Requeued flit 323375
Requeued flit 334539
Requeued flit 328267
Requeued flit 298633
Requeued flit 336915
Requeued flit 304500
Requeued flit 309508
Requeued flit 154479
Requeued flit 299508
Requeued flit 328617
Requeued flit 321866
Requeued flit 200234
Requeued flit 320881
Requeued flit 323310
Requeued flit 307196
Requeued flit 268600
Requeued flit 206480
Requeued flit 330785
Requeued flit 271467
Requeued flit 277909
Requeued flit 294955
Requeued flit 280795
Requeued flit 245904
Requeued flit 306105
Requeued flit 149357
Requeued flit 311656
Requeued flit 321274
Requeued flit 305394
Requeued flit 249460
Requeued flit 302205
Requeued flit 307898
Requeued flit 247296
Requeued flit 283099
Requeued flit 208410
Requeued flit 322385
Requeued flit 309058
Requeued flit 321880
Requeued flit 308050
Requeued flit 298772
Requeued flit 283383
Requeued flit 279944
Requeued flit 304156
Requeued flit 308026
Requeued flit 322605
Requeued flit 330966
Requeued flit 307997
Requeued flit 298762
Requeued flit 320508
Requeued flit 321962
Requeued flit 210577
Requeued flit 311383
Requeued flit 293920
Requeued flit 284874
Requeued flit 305235
Requeued flit 326379
Requeued flit 243187
Requeued flit 308267
Requeued flit 321917
Requeued flit 306762
Requeued flit 329586
Requeued flit 306079
Requeued flit 283308
Requeued flit 306602
Requeued flit 323154
Requeued flit 304030
Requeued flit 307352
Requeued flit 295411
Requeued flit 282962
Requeued flit 221476
Requeued flit 330262
Requeued flit 148091
Requeued flit 309327
Requeued flit 154442
Requeued flit 299214
Requeued flit 296292
Requeued flit 329842
Requeued flit 209010
Requeued flit 218121
Requeued flit 332485
Requeued flit 307749
Requeued flit 315645
Requeued flit 295823
Requeued flit 277767
Requeued flit 308038
Requeued flit 299960
Requeued flit 281705
Requeued flit 326523
Requeued flit 330433
Requeued flit 323906
Requeued flit 326072
Requeued flit 307021
Requeued flit 217244
Requeued flit 306338
Requeued flit 299949
Requeued flit 282178
Requeued flit 163290
Requeued flit 316036
Requeued flit 205519
Requeued flit 320175
Requeued flit 210796
Requeued flit 328306
Requeued flit 306783
Requeued flit 330591
Requeued flit 154790
Requeued flit 322565
Requeued flit 306140
Requeued flit 236229
Requeued flit 287538
Requeued flit 309594
Requeued flit 302653
Requeued flit 299803
Requeued flit 319793
Requeued flit 304566
Requeued flit 322279
Requeued flit 309603
Requeued flit 219341
Requeued flit 309328
Requeued flit 267738
Requeued flit 333178
Requeued flit 320320
Requeued flit 189123
Requeued flit 207256
Requeued flit 308489
Requeued flit 264350
Requeued flit 328689
Requeued flit 307120
Requeued flit 201353
Requeued flit 324054
Requeued flit 309432
Requeued flit 309452
Requeued flit 271933
Requeued flit 200234
Requeued flit 155971
Requeued flit 335201
Requeued flit 155857
Requeued flit 334769
Requeued flit 330785
Requeued flit 332604
Requeued flit 234581
Requeued flit 308050
Requeued flit 321401
Requeued flit 323144
Requeued flit 180819
Requeued flit 321675
Requeued flit 322605
Requeued flit 330597
Requeued flit 335625
Requeued flit 235352
Requeued flit 324243
Requeued flit 251447
Requeued flit 231891
Requeued flit 181772
Requeued flit 322106
Requeued flit 305105
Requeued flit 303730
Requeued flit 319113
Requeued flit 301335
Requeued flit 330669
Requeued flit 297466
Requeued flit 169461
Requeued flit 249460
Requeued flit 321456
Requeued flit 144760
Requeued flit 218971
Requeued flit 305940
Requeued flit 306501
Requeued flit 226538
Requeued flit 150518
Requeued flit 272379
Requeued flit 155638
Requeued flit 134849
Requeued flit 212801
Requeued flit 154465
Requeued flit 197691
Requeued flit 283834
Requeued flit 296916
Requeued flit 306566
Requeued flit 313362
Requeued flit 336817
Requeued flit 323965
Requeued flit 267496
Requeued flit 305788
Requeued flit 330416
Requeued flit 278871
Requeued flit 320508
Requeued flit 308714
Requeued flit 332845
Requeued flit 281859
Requeued flit 192605
Requeued flit 335615
Requeued flit 308221
Requeued flit 297451
Requeued flit 309094
Requeued flit 323586
Requeued flit 308283
Requeued flit 151713
Requeued flit 300873
Requeued flit 307682
Requeued flit 305916
Requeued flit 311731
Requeued flit 271467
Requeued flit 284931
Requeued flit 309248
Requeued flit 200103
Requeued flit 160149
Requeued flit 169105
Requeued flit 296441
Requeued flit 271695
Requeued flit 299374
Requeued flit 305580
Requeued flit 239996
Requeued flit 307301
Requeued flit 310108
Requeued flit 320261
Requeued flit 308258
Requeued flit 204727
Requeued flit 206480
Requeued flit 305711
Requeued flit 235330
Requeued flit 332188
Requeued flit 332790
Requeued flit 161905
Requeued flit 307184
Requeued flit 236856
Requeued flit 283815
Requeued flit 307963
Requeued flit 323476
Requeued flit 296410
Requeued flit 271245
Requeued flit 330629
Requeued flit 332604
Requeued flit 278972
Requeued flit 277767
Requeued flit 241002
Requeued flit 309530
Requeued flit 179744
Requeued flit 154116
Requeued flit 147234
Requeued flit 331160
Requeued flit 321302
Requeued flit 323250
Requeued flit 278382
Requeued flit 320881
Requeued flit 330439
Requeued flit 322219
Requeued flit 300045
Requeued flit 173057
Requeued flit 202866
Requeued flit 320200
Requeued flit 308583
Requeued flit 326659
Requeued flit 325885
Requeued flit 294201
Requeued flit 279625
Requeued flit 305464
Requeued flit 331315
Requeued flit 310779
Requeued flit 165032
Requeued flit 216324
Requeued flit 332141
Requeued flit 162427
Requeued flit 251481
Requeued flit 294208
Requeued flit 320597
Requeued flit 298261
Requeued flit 318282
Requeued flit 325800
Requeued flit 322186
Requeued flit 301003
Requeued flit 293175
Requeued flit 320368
Requeued flit 236943
Requeued flit 330599
Requeued flit 278890
Requeued flit 155857
Requeued flit 322136
Requeued flit 335974
Requeued flit 332845
Requeued flit 331615
Requeued flit 320320
Requeued flit 151226
Requeued flit 335901
Requeued flit 305904
Requeued flit 308134
Requeued flit 145688
Requeued flit 305781
Requeued flit 336817
Requeued flit 305139
Requeued flit 321934
Requeued flit 329629
Requeued flit 321058
Requeued flit 277733
Requeued flit 212801
Requeued flit 283379
Requeued flit 277523
Requeued flit 268859
Requeued flit 272465
Requeued flit 213392
Requeued flit 324522
Requeued flit 153348
Requeued flit 300840
Requeued flit 294768
Requeued flit 151082
Requeued flit 321029
Requeued flit 335006
Requeued flit 305746
Requeued flit 251271
Requeued flit 325377
Requeued flit 151038
Requeued flit 320883
Requeued flit 281744
Requeued flit 277632
Requeued flit 219883
Requeued flit 308955
Requeued flit 246901
Requeued flit 330004
Requeued flit 322533
Requeued flit 322922
Requeued flit 247051
Requeued flit 331965
Requeued flit 322294
Requeued flit 329474
Requeued flit 210105
Requeued flit 281417
Requeued flit 330777
Requeued flit 309158
Requeued flit 292264
Requeued flit 283383
Requeued flit 307529
Requeued flit 304822
Requeued flit 309879
Requeued flit 150895
Requeued flit 333769
Requeued flit 306983
Requeued flit 330850
Requeued flit 331160
Requeued flit 267496
Requeued flit 330602
Requeued flit 285772
Requeued flit 294956
Requeued flit 322858
Requeued flit 283849
Requeued flit 155075
Requeued flit 183123
Requeued flit 321165
Requeued flit 240055
Requeued flit 322238
Requeued flit 323598
Requeued flit 331476
Requeued flit 321229
Requeued flit 256572
Requeued flit 329236
Requeued flit 305812
Requeued flit 284286
Requeued flit 278383
Requeued flit 330431
Requeued flit 295991
Requeued flit 307184
Requeued flit 331115
Requeued flit 249368
Requeued flit 305891
Requeued flit 282006
Requeued flit 332316
Requeued flit 271245
Requeued flit 322219
Requeued flit 332446
Requeued flit 218858
Requeued flit 301055
Requeued flit 330241
Requeued flit 307121
Requeued flit 322681
Requeued flit 172699
Requeued flit 321973
Requeued flit 323062
Requeued flit 332102
Requeued flit 141633
Requeued flit 306659
Requeued flit 201720
Requeued flit 298179
Requeued flit 321624
Requeued flit 306647
Requeued flit 283517
Requeued flit 309378
Requeued flit 308097
Requeued flit 292544
Requeued flit 296504
Requeued flit 301926
Requeued flit 308079
Requeued flit 332096
Requeued flit 222663
Requeued flit 321588
Requeued flit 323862
Requeued flit 298598
Requeued flit 304500
Requeued flit 320108
Requeued flit 330672
Requeued flit 166492
Requeued flit 277888
Requeued flit 211884
Requeued flit 274703
Requeued flit 324097
Requeued flit 165032
Requeued flit 206873
Requeued flit 155857
Requeued flit 321088
Requeued flit 309094
Requeued flit 308633
Requeued flit 322498
Requeued flit 142085
Requeued flit 309586
Requeued flit 301882
Requeued flit 283613
Requeued flit 307430
Requeued flit 300771
Requeued flit 325623
Requeued flit 335360
Requeued flit 303688
Requeued flit 307931
Requeued flit 308091
Requeued flit 293034
Requeued flit 321577
Requeued flit 329033
Requeued flit 294768
Requeued flit 322941
Requeued flit 267728
Requeued flit 161815
Requeued flit 321771
Requeued flit 311666
Requeued flit 310193
Requeued flit 185567
Requeued flit 335516
Requeued flit 325885
Requeued flit 306838
Requeued flit 307781
Requeued flit 275883
Requeued flit 282453
Requeued flit 277965
Requeued flit 303554
Requeued flit 218843
Requeued flit 325491
Requeued flit 309362
Requeued flit 330014
Requeued flit 324034
Requeued flit 322637
Requeued flit 321917
Requeued flit 213544
Requeued flit 300799
Requeued flit 299559
Requeued flit 153853
Requeued flit 307007
Requeued flit 308163
Requeued flit 245652
Requeued flit 323301
Requeued flit 310028
Requeued flit 165560
Requeued flit 331145
Requeued flit 309180
Requeued flit 321161
Requeued flit 321856
Requeued flit 152791
Requeued flit 323675
Requeued flit 218953
Requeued flit 301486
Requeued flit 247235
Requeued flit 308134
Requeued flit 322605
Requeued flit 298275
Requeued flit 306351
Requeued flit 332141
Requeued flit 269585
Requeued flit 324657
Requeued flit 306177
Requeued flit 320098
Requeued flit 330577
Requeued flit 321058
Requeued flit 283383
Requeued flit 309381
Requeued flit 320942
Requeued flit 210130
Requeued flit 276454
Requeued flit 324928
Requeued flit 279625
Requeued flit 305824
Requeued flit 211005
Class 0:
Packet latency average = 2055.06
	minimum = 5
	maximum = 7773
Network latency average = 1712.6
	minimum = 5
	maximum = 7596
Slowest packet = 125726
Flit latency average = 1712.6
	minimum = 5
	maximum = 7596
Slowest flit = 134195
Fragmentation average = 0
	minimum = 0
	maximum = 0
Injected packet rate average = 0.559452
	minimum = 0.3722 (at node 17)
	maximum = 0.8212 (at node 28)
Accepted packet rate average = 0.443042
	minimum = 0.4226 (at node 21)
	maximum = 0.4601 (at node 14)
Injected flit rate average = 0.559452
	minimum = 0.3722 (at node 17)
	maximum = 0.8212 (at node 28)
Accepted flit rate average= 0.443042
	minimum = 0.4226 (at node 21)
	maximum = 0.4601 (at node 14)
Injected packet length average = 1
Accepted packet length average = 1
Total in-flight flits = 74536 (0 measured)
latency change    = 1
throughput change = 1
Average latency for class 0 exceeded 500 cycles. Aborting simulation.
Too many sample periods needed to converge
Simulation unstable, ending ...
Total run time 91.1554
