BEGIN Configuration File: examples/ecc_mesh88_config_0_0.600_packet_3
// $Id$

// Copyright (c) 2007-2015, Trustees of The Leland Stanford Junior University
// All rights reserved.
//
// Redistribution and use in source and binary forms, with or without
// modification, are permitted provided that the following conditions are met:
//
// Redistributions of source code must retain the above copyright notice, this
// list of conditions and the following disclaimer.
// Redistributions in binary form must reproduce the above copyright notice,
// this list of conditions and the following disclaimer in the documentation
// and/or other materials provided with the distribution.
//
// THIS SOFTWARE IS PROVIDED BY THE COPYRIGHT HOLDERS AND CONTRIBUTORS "AS IS"
// AND ANY EXPRESS OR IMPLIED WARRANTIES, INCLUDING, BUT NOT LIMITED TO, THE
// IMPLIED WARRANTIES OF MERCHANTABILITY AND FITNESS FOR A PARTICULAR PURPOSE
// ARE DISCLAIMED. IN NO EVENT SHALL THE COPYRIGHT OWNER OR CONTRIBUTORS BE
// LIABLE FOR ANY DIRECT, INDIRECT, INCIDENTAL, SPECIAL, EXEMPLARY, OR
// CONSEQUENTIAL DAMAGES (INCLUDING, BUT NOT LIMITED TO, PROCUREMENT OF
// SUBSTITUTE GOODS OR SERVICES; LOSS OF USE, DATA, OR PROFITS; OR BUSINESS
// INTERRUPTION) HOWEVER CAUSED AND ON ANY THEORY OF LIABILITY, WHETHER IN
// CONTRACT, STRICT LIABILITY, OR TORT (INCLUDING NEGLIGENCE OR OTHERWISE)
// ARISING IN ANY WAY OUT OF THE USE OF THIS SOFTWARE, EVEN IF ADVISED OF THE
// POSSIBILITY OF SUCH DAMAGE.

// Dragonfly
//




vc_buf_size = 256;


wait_for_tail_credit = 0;

//
// Router architecture
//
vc_allocator = separable_input_first; 
sw_allocator = separable_input_first;
alloc_iters  = 1;

credit_delay   = 2;
routing_delay  = 0;
vc_alloc_delay = 1;
sw_alloc_delay = 1;
st_final_delay = 1;

input_speedup     = 1;
output_speedup    = 1;
internal_speedup  = 2.0;


warmup_periods = 3;
sim_count          = 1;

sample_period  = 10000;  


routing_function = dor;
num_vcs     = 2;

priority = none;
traffic       = uniform; 

injection_rate = 0.6;
packet_size = 1;
injection_rate_uses_flits=1;

topology = mesh;

k  = 8;
n  = 2;

fer = 3;
ecc = link;
correctable = 0;

watch_out=-;
watch_file = watch.txt;

ecc = packet;

stats_out = examples/ecc_mesh88_config_0_0.600_packet_3.m;

END Configuration File: examples/ecc_mesh88_config_0_0.600_packet_3
Additional hops: 3
Adding flit 168 as NACK at time 15
Reenqueueing errored packet 168 at time 22
Additional hops: 8
Adding flit 550 as NACK at time 46
Additional hops: 12
Adding flit 1186 as NACK at time 46
Additional hops: 16
Adding flit 1229 as NACK at time 49
Additional hops: 23
Adding flit 843 as NACK at time 53
Reenqueueing errored packet 1186 at time 55
Reenqueueing errored packet 550 at time 57
Reenqueueing errored packet 1229 at time 58
Additional hops: 27
Adding flit 1059 as NACK at time 63
Additional hops: 35
Adding flit 1147 as NACK at time 63
Additional hops: 40
Adding flit 1770 as NACK at time 66
Reenqueueing errored packet 843 at time 68
Additional hops: 49
Adding flit 1425 as NACK at time 69
Reenqueueing errored packet 1059 at time 72
Additional hops: 53
Adding flit 2056 as NACK at time 74
Additional hops: 65
Adding flit 823 as NACK at time 74
Reenqueueing errored packet 1770 at time 77
Additional hops: 70
Adding flit 2081 as NACK at time 78
Additional hops: 81
Adding flit 1135 as NACK at time 78
Additional hops: 90
Adding flit 1114 as NACK at time 79
Reenqueueing errored packet 1147 at time 80
Reenqueueing errored packet 2056 at time 83
Additional hops: 96
Adding flit 2417 as NACK at time 84
Additional hops: 100
Adding flit 2673 as NACK at time 85
Reenqueueing errored packet 1425 at time 88
Reenqueueing errored packet 2081 at time 89
Reenqueueing errored packet 2673 at time 94
Reenqueueing errored packet 2417 at time 97
Reenqueueing errored packet 1114 at time 98
Reenqueueing errored packet 823 at time 99
Reenqueueing errored packet 1135 at time 101
Additional hops: 109
Adding flit 2442 as NACK at time 112
Additional hops: 112
Adding flit 3590 as NACK at time 112
Additional hops: 115
Adding flit 4040 as NACK at time 115
Reenqueueing errored packet 3590 at time 119
Additional hops: 122
Adding flit 2898 as NACK at time 120
Reenqueueing errored packet 4040 at time 122
Additional hops: 130
Adding flit 3438 as NACK at time 125
Reenqueueing errored packet 2442 at time 131
Reenqueueing errored packet 2898 at time 135
Additional hops: 139
Adding flit 2988 as NACK at time 135
Reenqueueing errored packet 3438 at time 142
Additional hops: 146
Adding flit 4438 as NACK at time 148
Additional hops: 151
Adding flit 4531 as NACK at time 153
Reenqueueing errored packet 2988 at time 154
Additional hops: 156
Adding flit 4847 as NACK at time 157
Additional hops: 161
Adding flit 5560 as NACK at time 161
Reenqueueing errored packet 4438 at time 163
Reenqueueing errored packet 4531 at time 164
Additional hops: 167
Adding flit 4386 as NACK at time 167
Reenqueueing errored packet 4847 at time 168
Additional hops: 176
Adding flit 4252 as NACK at time 171
Reenqueueing errored packet 5560 at time 172
Reenqueueing errored packet 4386 at time 180
Additional hops: 182
Adding flit 4790 as NACK at time 180
Additional hops: 186
Adding flit 6619 as NACK at time 185
Additional hops: 191
Adding flit 6270 as NACK at time 187
Reenqueueing errored packet 4252 at time 190
Additional hops: 197
Adding flit 5559 as NACK at time 192
Reenqueueing errored packet 4790 at time 193
Reenqueueing errored packet 6619 at time 194
Additional hops: 208
Adding flit 4469 as NACK at time 194
Reenqueueing errored packet 6270 at time 198
Additional hops: 215
Adding flit 5266 as NACK at time 202
Reenqueueing errored packet 5559 at time 205
Additional hops: 223
Adding flit 5309 as NACK at time 208
Additional hops: 231
Adding flit 5729 as NACK at time 214
Reenqueueing errored packet 5266 at time 217
Reenqueueing errored packet 4469 at time 217
Additional hops: 241
Adding flit 4132 as NACK at time 221
Additional hops: 246
Adding flit 7424 as NACK at time 224
Reenqueueing errored packet 5309 at time 225
Reenqueueing errored packet 5729 at time 231
Additional hops: 254
Adding flit 6870 as NACK at time 234
Reenqueueing errored packet 7424 at time 235
Additional hops: 262
Adding flit 7414 as NACK at time 237
Additional hops: 268
Adding flit 7905 as NACK at time 239
Additional hops: 276
Adding flit 5387 as NACK at time 241
Reenqueueing errored packet 4132 at time 242
Reenqueueing errored packet 6870 at time 251
Reenqueueing errored packet 7905 at time 252
Reenqueueing errored packet 7414 at time 254
Reenqueueing errored packet 5387 at time 258
Additional hops: 284
Adding flit 8388 as NACK at time 263
Additional hops: 289
Adding flit 9150 as NACK at time 264
Additional hops: 292
Adding flit 9735 as NACK at time 265
Additional hops: 305
Adding flit 6684 as NACK at time 267
Additional hops: 310
Adding flit 7816 as NACK at time 267
Additional hops: 317
Adding flit 8940 as NACK at time 268
Reenqueueing errored packet 9735 at time 272
Reenqueueing errored packet 9150 at time 275
Additional hops: 328
Adding flit 6402 as NACK at time 277
Reenqueueing errored packet 7816 at time 278
Reenqueueing errored packet 8388 at time 280
Additional hops: 337
Adding flit 8433 as NACK at time 281
Reenqueueing errored packet 8940 at time 283
Additional hops: 344
Adding flit 7349 as NACK at time 283
Additional hops: 354
Adding flit 7662 as NACK at time 286
Additional hops: 361
Adding flit 7866 as NACK at time 287
Reenqueueing errored packet 6684 at time 294
Reenqueueing errored packet 7349 at time 298
Additional hops: 368
Adding flit 9912 as NACK at time 298
Reenqueueing errored packet 8433 at time 300
Reenqueueing errored packet 6402 at time 300
Reenqueueing errored packet 7866 at time 302
Reenqueueing errored packet 7662 at time 307
Additional hops: 373
Adding flit 8274 as NACK at time 307
Additional hops: 379
Adding flit 10353 as NACK at time 309
Reenqueueing errored packet 9912 at time 313
Additional hops: 384
Adding flit 8851 as NACK at time 317
Reenqueueing errored packet 8274 at time 318
Additional hops: 389
Adding flit 8805 as NACK at time 319
Reenqueueing errored packet 10353 at time 322
Additional hops: 397
Adding flit 9274 as NACK at time 323
Additional hops: 403
Adding flit 10491 as NACK at time 323
Additional hops: 409
Adding flit 9843 as NACK at time 327
Reenqueueing errored packet 8851 at time 328
Additional hops: 418
Adding flit 8262 as NACK at time 329
Reenqueueing errored packet 8805 at time 330
Reenqueueing errored packet 10491 at time 336
Reenqueueing errored packet 9843 at time 340
Reenqueueing errored packet 9274 at time 340
Additional hops: 431
Adding flit 7751 as NACK at time 342
Reenqueueing errored packet 8262 at time 348
Additional hops: 435
Adding flit 12057 as NACK at time 348
Reenqueueing errored packet 12057 at time 357
Additional hops: 442
Adding flit 12139 as NACK at time 362
Additional hops: 450
Adding flit 10764 as NACK at time 368
Additional hops: 457
Adding flit 9709 as NACK at time 368
Reenqueueing errored packet 7751 at time 369
Additional hops: 469
Adding flit 7058 as NACK at time 372
Additional hops: 478
Adding flit 11579 as NACK at time 372
Reenqueueing errored packet 12139 at time 377
Additional hops: 482
Adding flit 14026 as NACK at time 382
Reenqueueing errored packet 9709 at time 383
Additional hops: 490
Adding flit 10342 as NACK at time 384
Reenqueueing errored packet 10764 at time 385
Additional hops: 497
Adding flit 12518 as NACK at time 386
Additional hops: 503
Adding flit 12372 as NACK at time 387
Additional hops: 508
Adding flit 14234 as NACK at time 387
Reenqueueing errored packet 14026 at time 391
Reenqueueing errored packet 11579 at time 391
Reenqueueing errored packet 7058 at time 397
Reenqueueing errored packet 14234 at time 398
Additional hops: 514
Adding flit 10789 as NACK at time 398
Additional hops: 526
Adding flit 10524 as NACK at time 398
Reenqueueing errored packet 12372 at time 400
Reenqueueing errored packet 12518 at time 401
Reenqueueing errored packet 10342 at time 401
Additional hops: 531
Adding flit 13272 as NACK at time 404
Additional hops: 540
Adding flit 9847 as NACK at time 404
Additional hops: 544
Adding flit 14492 as NACK at time 407
Additional hops: 556
Adding flit 9761 as NACK at time 407
Reenqueueing errored packet 10789 at time 411
Additional hops: 563
Adding flit 11529 as NACK at time 411
Reenqueueing errored packet 13272 at time 415
Reenqueueing errored packet 14492 at time 416
Additional hops: 569
Adding flit 12730 as NACK at time 419
Reenqueueing errored packet 9847 at time 423
Reenqueueing errored packet 10524 at time 423
Additional hops: 575
Adding flit 10872 as NACK at time 423
Additional hops: 582
Adding flit 14249 as NACK at time 424
Reenqueueing errored packet 11529 at time 426
Additional hops: 585
Adding flit 16159 as NACK at time 431
Reenqueueing errored packet 12730 at time 432
Reenqueueing errored packet 9761 at time 432
Reenqueueing errored packet 10872 at time 436
Reenqueueing errored packet 16159 at time 438
Reenqueueing errored packet 14249 at time 439
Additional hops: 589
Adding flit 14798 as NACK at time 449
Additional hops: 598
Adding flit 15301 as NACK at time 451
Additional hops: 607
Adding flit 12652 as NACK at time 453
Reenqueueing errored packet 14798 at time 458
Additional hops: 612
Adding flit 14675 as NACK at time 459
Additional hops: 620
Adding flit 13120 as NACK at time 460
Additional hops: 623
Adding flit 17296 as NACK at time 465
Additional hops: 629
Adding flit 17010 as NACK at time 468
Reenqueueing errored packet 14675 at time 470
Reenqueueing errored packet 15301 at time 470
Reenqueueing errored packet 17296 at time 472
Reenqueueing errored packet 12652 at time 472
Additional hops: 636
Adding flit 15178 as NACK at time 475
Reenqueueing errored packet 13120 at time 477
Reenqueueing errored packet 17010 at time 481
Additional hops: 648
Adding flit 12936 as NACK at time 484
Reenqueueing errored packet 15178 at time 490
Additional hops: 653
Adding flit 16150 as NACK at time 499
Additional hops: 658
Adding flit 15610 as NACK at time 501
Additional hops: 667
Adding flit 13824 as NACK at time 507
Reenqueueing errored packet 12936 at time 509
Reenqueueing errored packet 16150 at time 510
Reenqueueing errored packet 15610 at time 512
Additional hops: 677
Adding flit 15227 as NACK at time 514
Reenqueueing errored packet 13824 at time 526
Additional hops: 682
Adding flit 16759 as NACK at time 528
Additional hops: 690
Adding flit 14305 as NACK at time 528
Additional hops: 695
Adding flit 16158 as NACK at time 534
Reenqueueing errored packet 15227 at time 535
Additional hops: 700
Adding flit 17025 as NACK at time 535
Additional hops: 704
Adding flit 18538 as NACK at time 535
Reenqueueing errored packet 16759 at time 539
Additional hops: 712
Adding flit 17492 as NACK at time 539
Additional hops: 720
Adding flit 12779 as NACK at time 540
Additional hops: 725
Adding flit 19462 as NACK at time 541
Reenqueueing errored packet 18538 at time 544
Reenqueueing errored packet 16158 at time 545
Reenqueueing errored packet 14305 at time 545
Reenqueueing errored packet 17025 at time 546
Additional hops: 730
Adding flit 19035 as NACK at time 550
Reenqueueing errored packet 19462 at time 552
Reenqueueing errored packet 17492 at time 556
Reenqueueing errored packet 12779 at time 557
Additional hops: 740
Adding flit 14637 as NACK at time 558
Reenqueueing errored packet 19035 at time 561
Additional hops: 744
Adding flit 14654 as NACK at time 563
Additional hops: 754
Adding flit 16751 as NACK at time 564
Additional hops: 761
Adding flit 15887 as NACK at time 564
Additional hops: 765
Adding flit 18623 as NACK at time 566
Additional hops: 773
Adding flit 16287 as NACK at time 567
Additional hops: 782
Adding flit 18795 as NACK at time 567
Additional hops: 790
Adding flit 16934 as NACK at time 571
Reenqueueing errored packet 14654 at time 572
Additional hops: 799
Adding flit 17687 as NACK at time 573
Reenqueueing errored packet 18623 at time 575
Additional hops: 809
Adding flit 15987 as NACK at time 577
Reenqueueing errored packet 15887 at time 579
Reenqueueing errored packet 14637 at time 579
Additional hops: 821
Adding flit 15945 as NACK at time 582
Additional hops: 833
Adding flit 14807 as NACK at time 583
Reenqueueing errored packet 16287 at time 584
Reenqueueing errored packet 16751 at time 585
Reenqueueing errored packet 18795 at time 586
Reenqueueing errored packet 16934 at time 588
Reenqueueing errored packet 17687 at time 592
Additional hops: 840
Adding flit 20170 as NACK at time 595
Additional hops: 847
Adding flit 16596 as NACK at time 596
Reenqueueing errored packet 15987 at time 598
Additional hops: 859
Adding flit 15075 as NACK at time 598
Additional hops: 867
Adding flit 17211 as NACK at time 604
Reenqueueing errored packet 15945 at time 607
Reenqueueing errored packet 14807 at time 608
Additional hops: 875
Adding flit 16758 as NACK at time 609
Reenqueueing errored packet 20170 at time 610
Reenqueueing errored packet 16596 at time 611
Additional hops: 884
Adding flit 16671 as NACK at time 614
Reenqueueing errored packet 17211 at time 621
Reenqueueing errored packet 15075 at time 623
Additional hops: 890
Adding flit 18523 as NACK at time 624
Additional hops: 895
Adding flit 20155 as NACK at time 624
Reenqueueing errored packet 16758 at time 626
Reenqueueing errored packet 16671 at time 633
Reenqueueing errored packet 20155 at time 635
Additional hops: 901
Adding flit 23070 as NACK at time 635
Additional hops: 910
Adding flit 18828 as NACK at time 636
Reenqueueing errored packet 18523 at time 637
Additional hops: 917
Adding flit 20591 as NACK at time 637
Additional hops: 926
Adding flit 19748 as NACK at time 639
Additional hops: 932
Adding flit 16666 as NACK at time 640
Additional hops: 944
Adding flit 16321 as NACK at time 646
Additional hops: 955
Adding flit 14827 as NACK at time 646
Reenqueueing errored packet 23070 at time 648
Additional hops: 965
Adding flit 20533 as NACK at time 651
Reenqueueing errored packet 20591 at time 652
Reenqueueing errored packet 16666 at time 653
Reenqueueing errored packet 18828 at time 655
Additional hops: 976
Adding flit 19093 as NACK at time 657
Reenqueueing errored packet 19748 at time 658
Additional hops: 980
Adding flit 21091 as NACK at time 659
Additional hops: 987
Adding flit 20731 as NACK at time 659
Additional hops: 998
Adding flit 19528 as NACK at time 661
Additional hops: 1007
Adding flit 17192 as NACK at time 662
Additional hops: 1014
Adding flit 17748 as NACK at time 666
Reenqueueing errored packet 21091 at time 668
Reenqueueing errored packet 14827 at time 669
Additional hops: 1021
Adding flit 24490 as NACK at time 669
Reenqueueing errored packet 16321 at time 671
Additional hops: 1031
Adding flit 19257 as NACK at time 671
Reenqueueing errored packet 20533 at time 672
Reenqueueing errored packet 20731 at time 674
Reenqueueing errored packet 19093 at time 680
Reenqueueing errored packet 17748 at time 681
Reenqueueing errored packet 17192 at time 681
Additional hops: 1038
Adding flit 21987 as NACK at time 682
Reenqueueing errored packet 24490 at time 684
Reenqueueing errored packet 19528 at time 684
Additional hops: 1042
Adding flit 25908 as NACK at time 687
Reenqueueing errored packet 19257 at time 692
Additional hops: 1052
Adding flit 18308 as NACK at time 695
Reenqueueing errored packet 25908 at time 696
Reenqueueing errored packet 21987 at time 697
Additional hops: 1061
Adding flit 17638 as NACK at time 697
Additional hops: 1065
Adding flit 21446 as NACK at time 697
Additional hops: 1069
Adding flit 26235 as NACK at time 697
Additional hops: 1076
Adding flit 22402 as NACK at time 698
Additional hops: 1079
Adding flit 22543 as NACK at time 699
Additional hops: 1088
Adding flit 18119 as NACK at time 703
Reenqueueing errored packet 22543 at time 706
Reenqueueing errored packet 26235 at time 706
Reenqueueing errored packet 21446 at time 706
Additional hops: 1094
Adding flit 24545 as NACK at time 706
Additional hops: 1101
Adding flit 20178 as NACK at time 708
Reenqueueing errored packet 22402 at time 713
Additional hops: 1110
Adding flit 22257 as NACK at time 713
Reenqueueing errored packet 17638 at time 716
Reenqueueing errored packet 18308 at time 716
Reenqueueing errored packet 24545 at time 719
Additional hops: 1120
Adding flit 21140 as NACK at time 719
Additional hops: 1130
Adding flit 18684 as NACK at time 719
Additional hops: 1133
Adding flit 27247 as NACK at time 721
Reenqueueing errored packet 18119 at time 722
Reenqueueing errored packet 20178 at time 723
Reenqueueing errored packet 27247 at time 728
Additional hops: 1144
Adding flit 20292 as NACK at time 728
Additional hops: 1162
Adding flit 13824 as NACK at time 731
Reenqueueing errored packet 22257 at time 732
Additional hops: 1166
Adding flit 23532 as NACK at time 737
Reenqueueing errored packet 18684 at time 740
Reenqueueing errored packet 21140 at time 740
Reenqueueing errored packet 23532 at time 746
Reenqueueing errored packet 20292 at time 751
Additional hops: 1175
Adding flit 22972 as NACK at time 760
Additional hops: 1183
Adding flit 21593 as NACK at time 761
Reenqueueing errored packet 13824 at time 768
Additional hops: 1194
Adding flit 19162 as NACK at time 770
Additional hops: 1199
Adding flit 27036 as NACK at time 772
Additional hops: 1211
Adding flit 18994 as NACK at time 773
Reenqueueing errored packet 21593 at time 778
Reenqueueing errored packet 22972 at time 779
Additional hops: 1217
Adding flit 26461 as NACK at time 782
Reenqueueing errored packet 27036 at time 783
Additional hops: 1225
Adding flit 21192 as NACK at time 783
Additional hops: 1234
Adding flit 22743 as NACK at time 786
Reenqueueing errored packet 19162 at time 793
Reenqueueing errored packet 26461 at time 795
Additional hops: 1237
Adding flit 30124 as NACK at time 795
Reenqueueing errored packet 18994 at time 798
Reenqueueing errored packet 21192 at time 800
Additional hops: 1245
Adding flit 22639 as NACK at time 801
Reenqueueing errored packet 30124 at time 802
Additional hops: 1251
Adding flit 28113 as NACK at time 802
Additional hops: 1257
Adding flit 27314 as NACK at time 803
Additional hops: 1265
Adding flit 23797 as NACK at time 804
Reenqueueing errored packet 22743 at time 805
Additional hops: 1276
Adding flit 26954 as NACK at time 806
Additional hops: 1284
Adding flit 21579 as NACK at time 811
Additional hops: 1291
Adding flit 25832 as NACK at time 813
Reenqueueing errored packet 28113 at time 815
Additional hops: 1301
Adding flit 27589 as NACK at time 815
Reenqueueing errored packet 27314 at time 816
Reenqueueing errored packet 22639 at time 818
Reenqueueing errored packet 23797 at time 821
Additional hops: 1308
Adding flit 27095 as NACK at time 821
Reenqueueing errored packet 25832 at time 828
Reenqueueing errored packet 26954 at time 829
Additional hops: 1314
Adding flit 24386 as NACK at time 830
Reenqueueing errored packet 27095 at time 836
Reenqueueing errored packet 27589 at time 836
Additional hops: 1323
Adding flit 26810 as NACK at time 842
Reenqueueing errored packet 24386 at time 843
Additional hops: 1329
Adding flit 30516 as NACK at time 844
Additional hops: 1334
Adding flit 30189 as NACK at time 845
Additional hops: 1344
Adding flit 25969 as NACK at time 847
Additional hops: 1355
Adding flit 23798 as NACK at time 848
Additional hops: 1363
Adding flit 28209 as NACK at time 848
Reenqueueing errored packet 30189 at time 856
Reenqueueing errored packet 30516 at time 857
Additional hops: 1373
Adding flit 23129 as NACK at time 857
Reenqueueing errored packet 26810 at time 861
Reenqueueing errored packet 28209 at time 865
Reenqueueing errored packet 25969 at time 868
Additional hops: 1380
Adding flit 26757 as NACK at time 870
Reenqueueing errored packet 23798 at time 871
Additional hops: 1385
Adding flit 27987 as NACK at time 874
Reenqueueing errored packet 23129 at time 878
Additional hops: 1387
Adding flit 33395 as NACK at time 878
Additional hops: 1393
Adding flit 26064 as NACK at time 882
Reenqueueing errored packet 33395 at time 883
Additional hops: 1402
Adding flit 28029 as NACK at time 883
Additional hops: 1415
Adding flit 24508 as NACK at time 884
Reenqueueing errored packet 27987 at time 885
Reenqueueing errored packet 26757 at time 885
Additional hops: 1425
Adding flit 26921 as NACK at time 886
Additional hops: 1431
Adding flit 26955 as NACK at time 886
Additional hops: 1438
Adding flit 28337 as NACK at time 887
Reenqueueing errored packet 26064 at time 895
Additional hops: 1440
Adding flit 33157 as NACK at time 896
Reenqueueing errored packet 26955 at time 899
Reenqueueing errored packet 33157 at time 901
Reenqueueing errored packet 28337 at time 902
Reenqueueing errored packet 28029 at time 902
Reenqueueing errored packet 26921 at time 907
Additional hops: 1448
Adding flit 24368 as NACK at time 907
Additional hops: 1455
Adding flit 27853 as NACK at time 910
Reenqueueing errored packet 24508 at time 911
Additional hops: 1457
Adding flit 29562 as NACK at time 918
Additional hops: 1462
Adding flit 32068 as NACK at time 922
Reenqueueing errored packet 29562 at time 923
Reenqueueing errored packet 24368 at time 924
Reenqueueing errored packet 27853 at time 925
Reenqueueing errored packet 32068 at time 933
Additional hops: 1466
Adding flit 35293 as NACK at time 941
Additional hops: 1473
Adding flit 26589 as NACK at time 945
Reenqueueing errored packet 35293 at time 950
Additional hops: 1475
Adding flit 36196 as NACK at time 955
Additional hops: 1481
Adding flit 33360 as NACK at time 958
Reenqueueing errored packet 36196 at time 960
Reenqueueing errored packet 26589 at time 960
Additional hops: 1492
Adding flit 31532 as NACK at time 962
Additional hops: 1497
Adding flit 31356 as NACK at time 967
Reenqueueing errored packet 33360 at time 971
Additional hops: 1506
Adding flit 28942 as NACK at time 975
Additional hops: 1515
Adding flit 29910 as NACK at time 977
Additional hops: 1527
Adding flit 29660 as NACK at time 977
Reenqueueing errored packet 31356 at time 978
Additional hops: 1535
Adding flit 33189 as NACK at time 978
Additional hops: 1542
Adding flit 32308 as NACK at time 980
Additional hops: 1545
Adding flit 37210 as NACK at time 981
Reenqueueing errored packet 31532 at time 985
Reenqueueing errored packet 37210 at time 988
Additional hops: 1550
Adding flit 32872 as NACK at time 991
Additional hops: 1563
Adding flit 23094 as NACK at time 991
Additional hops: 1572
Adding flit 23964 as NACK at time 992
Reenqueueing errored packet 28942 at time 994
Reenqueueing errored packet 32308 at time 995
Reenqueueing errored packet 33189 at time 995
Additional hops: 1576
Adding flit 32674 as NACK at time 995
Additional hops: 1587
Adding flit 23567 as NACK at time 995
Reenqueueing errored packet 29910 at time 996
Reenqueueing errored packet 32872 at time 1002
Reenqueueing errored packet 29660 at time 1002
Reenqueueing errored packet 32674 at time 1004
Reenqueueing errored packet 23964 at time 1011
Reenqueueing errored packet 23567 at time 1018
Reenqueueing errored packet 23094 at time 1018
Additional hops: 1591
Adding flit 30363 as NACK at time 1019
Reenqueueing errored packet 30363 at time 1028
Additional hops: 1594
Adding flit 39258 as NACK at time 1035
Additional hops: 1603
Adding flit 32133 as NACK at time 1035
Additional hops: 1607
Adding flit 32233 as NACK at time 1037
Reenqueueing errored packet 39258 at time 1042
Reenqueueing errored packet 32233 at time 1046
Additional hops: 1617
Adding flit 29704 as NACK at time 1046
Reenqueueing errored packet 32133 at time 1054
Additional hops: 1622
Adding flit 33545 as NACK at time 1054
Additional hops: 1631
Adding flit 27553 as NACK at time 1058
Reenqueueing errored packet 33545 at time 1065
Reenqueueing errored packet 29704 at time 1067
Additional hops: 1639
Adding flit 30015 as NACK at time 1067
Additional hops: 1649
Adding flit 28501 as NACK at time 1075
Reenqueueing errored packet 27553 at time 1077
Reenqueueing errored packet 30015 at time 1084
Additional hops: 1660
Adding flit 32882 as NACK at time 1085
Reenqueueing errored packet 28501 at time 1096
Additional hops: 1668
Adding flit 35494 as NACK at time 1096
Additional hops: 1675
Adding flit 35607 as NACK at time 1097
Additional hops: 1680
Adding flit 41807 as NACK at time 1107
Reenqueueing errored packet 32882 at time 1108
Additional hops: 1685
Adding flit 32483 as NACK at time 1109
Reenqueueing errored packet 35607 at time 1112
Reenqueueing errored packet 35494 at time 1113
Additional hops: 1689
Adding flit 36142 as NACK at time 1117
Reenqueueing errored packet 41807 at time 1118
Reenqueueing errored packet 32483 at time 1120
Additional hops: 1698
Adding flit 31205 as NACK at time 1121
Additional hops: 1707
Adding flit 29892 as NACK at time 1122
Additional hops: 1719
Adding flit 29691 as NACK at time 1123
Reenqueueing errored packet 36142 at time 1126
Additional hops: 1723
Adding flit 36955 as NACK at time 1128
Additional hops: 1729
Adding flit 36824 as NACK at time 1129
Additional hops: 1733
Adding flit 37127 as NACK at time 1136
Reenqueueing errored packet 36955 at time 1137
Additional hops: 1742
Adding flit 28243 as NACK at time 1138
Reenqueueing errored packet 31205 at time 1140
Reenqueueing errored packet 29892 at time 1141
Reenqueueing errored packet 36824 at time 1142
Reenqueueing errored packet 37127 at time 1145
Additional hops: 1746
Adding flit 43392 as NACK at time 1146
Reenqueueing errored packet 29691 at time 1148
Additional hops: 1754
Adding flit 32063 as NACK at time 1152
Reenqueueing errored packet 43392 at time 1155
Reenqueueing errored packet 28243 at time 1157
Additional hops: 1764
Adding flit 32048 as NACK at time 1166
Additional hops: 1771
Adding flit 36063 as NACK at time 1167
Additional hops: 1783
Adding flit 31242 as NACK at time 1168
Reenqueueing errored packet 32063 at time 1169
Additional hops: 1788
Adding flit 41356 as NACK at time 1177
Additional hops: 1793
Adding flit 44206 as NACK at time 1178
Reenqueueing errored packet 36063 at time 1182
Additional hops: 1802
Adding flit 38353 as NACK at time 1185
Reenqueueing errored packet 32048 at time 1187
Reenqueueing errored packet 41356 at time 1188
Reenqueueing errored packet 44206 at time 1189
Reenqueueing errored packet 31242 at time 1193
Additional hops: 1805
Adding flit 40486 as NACK at time 1194
Reenqueueing errored packet 40486 at time 1201
Additional hops: 1811
Adding flit 36627 as NACK at time 1203
Additional hops: 1816
Adding flit 42210 as NACK at time 1203
Reenqueueing errored packet 38353 at time 1204
Additional hops: 1822
Adding flit 43473 as NACK at time 1208
Reenqueueing errored packet 42210 at time 1214
Additional hops: 1828
Adding flit 34764 as NACK at time 1214
Additional hops: 1840
Adding flit 32572 as NACK at time 1215
Reenqueueing errored packet 36627 at time 1216
Reenqueueing errored packet 43473 at time 1221
Additional hops: 1846
Adding flit 44698 as NACK at time 1224
Reenqueueing errored packet 34764 at time 1227
Additional hops: 1854
Adding flit 41420 as NACK at time 1231
Additional hops: 1863
Adding flit 36985 as NACK at time 1232
Additional hops: 1869
Adding flit 40020 as NACK at time 1233
Additional hops: 1878
Adding flit 42367 as NACK at time 1236
Reenqueueing errored packet 44698 at time 1237
Additional hops: 1885
Adding flit 35748 as NACK at time 1238
Reenqueueing errored packet 32572 at time 1240
Reenqueueing errored packet 40020 at time 1246
Reenqueueing errored packet 41420 at time 1248
Reenqueueing errored packet 36985 at time 1251
Reenqueueing errored packet 35748 at time 1253
Additional hops: 1889
Adding flit 47633 as NACK at time 1254
Additional hops: 1897
Adding flit 35040 as NACK at time 1254
Reenqueueing errored packet 42367 at time 1255
Additional hops: 1904
Adding flit 38355 as NACK at time 1255
Additional hops: 1909
Adding flit 42890 as NACK at time 1257
Additional hops: 1916
Adding flit 42435 as NACK at time 1259
Additional hops: 1926
Adding flit 33888 as NACK at time 1259
Reenqueueing errored packet 47633 at time 1263
Additional hops: 1932
Adding flit 38204 as NACK at time 1263
Reenqueueing errored packet 42890 at time 1268
Additional hops: 1936
Adding flit 48224 as NACK at time 1268
Reenqueueing errored packet 38355 at time 1270
Reenqueueing errored packet 35040 at time 1271
Reenqueueing errored packet 42435 at time 1274
Additional hops: 1944
Adding flit 44128 as NACK at time 1274
Additional hops: 1954
Adding flit 38963 as NACK at time 1274
Reenqueueing errored packet 38204 at time 1276
Reenqueueing errored packet 48224 at time 1277
Reenqueueing errored packet 33888 at time 1280
Additional hops: 1960
Adding flit 43031 as NACK at time 1287
Reenqueueing errored packet 44128 at time 1291
Additional hops: 1968
Adding flit 42585 as NACK at time 1291
Additional hops: 1974
Adding flit 42491 as NACK at time 1294
Reenqueueing errored packet 38963 at time 1295
Additional hops: 1981
Adding flit 45991 as NACK at time 1298
Reenqueueing errored packet 43031 at time 1300
Additional hops: 1988
Adding flit 45713 as NACK at time 1304
Reenqueueing errored packet 42491 at time 1307
Reenqueueing errored packet 42585 at time 1308
Reenqueueing errored packet 45991 at time 1313
Additional hops: 1992
Adding flit 44684 as NACK at time 1313
Additional hops: 2002
Adding flit 38577 as NACK at time 1316
Reenqueueing errored packet 45713 at time 1319
Additional hops: 2010
Adding flit 39499 as NACK at time 1321
Reenqueueing errored packet 44684 at time 1322
Additional hops: 2018
Adding flit 36798 as NACK at time 1323
Additional hops: 2026
Adding flit 38336 as NACK at time 1332
Additional hops: 2038
Adding flit 36070 as NACK at time 1335
Reenqueueing errored packet 38577 at time 1337
Reenqueueing errored packet 39499 at time 1338
Reenqueueing errored packet 36798 at time 1340
Additional hops: 2045
Adding flit 38797 as NACK at time 1342
Reenqueueing errored packet 38336 at time 1349
Additional hops: 2054
Adding flit 48842 as NACK at time 1349
Reenqueueing errored packet 38797 at time 1357
Additional hops: 2060
Adding flit 39539 as NACK at time 1359
Reenqueueing errored packet 36070 at time 1360
Additional hops: 2067
Adding flit 39276 as NACK at time 1363
Additional hops: 2071
Adding flit 48193 as NACK at time 1363
Additional hops: 2076
Adding flit 50195 as NACK at time 1364
Reenqueueing errored packet 48842 at time 1368
Additional hops: 2085
Adding flit 41946 as NACK at time 1370
Reenqueueing errored packet 48193 at time 1372
Reenqueueing errored packet 39539 at time 1372
Reenqueueing errored packet 50195 at time 1375
Additional hops: 2091
Adding flit 46318 as NACK at time 1377
Reenqueueing errored packet 39276 at time 1378
Additional hops: 2097
Adding flit 44143 as NACK at time 1380
Additional hops: 2103
Adding flit 46429 as NACK at time 1381
Additional hops: 2110
Adding flit 46585 as NACK at time 1385
Additional hops: 2117
Adding flit 47455 as NACK at time 1387
Reenqueueing errored packet 41946 at time 1389
Reenqueueing errored packet 46318 at time 1390
Additional hops: 2128
Adding flit 36735 as NACK at time 1390
Additional hops: 2135
Adding flit 40130 as NACK at time 1391
Reenqueueing errored packet 44143 at time 1393
Reenqueueing errored packet 46429 at time 1394
Additional hops: 2141
Adding flit 43043 as NACK at time 1394
Additional hops: 2151
Adding flit 38945 as NACK at time 1397
Additional hops: 2162
Adding flit 40248 as NACK at time 1398
Reenqueueing errored packet 46585 at time 1400
Reenqueueing errored packet 47455 at time 1402
Additional hops: 2176
Adding flit 38311 as NACK at time 1404
Additional hops: 2180
Adding flit 53294 as NACK at time 1405
Reenqueueing errored packet 40130 at time 1406
Additional hops: 2192
Adding flit 40554 as NACK at time 1406
Reenqueueing errored packet 43043 at time 1407
Additional hops: 2199
Adding flit 44115 as NACK at time 1409
Reenqueueing errored packet 36735 at time 1413
Reenqueueing errored packet 53294 at time 1414
Additional hops: 2205
Adding flit 44312 as NACK at time 1417
Reenqueueing errored packet 38945 at time 1418
Additional hops: 2211
Adding flit 44375 as NACK at time 1420
Reenqueueing errored packet 40248 at time 1421
Reenqueueing errored packet 44115 at time 1424
Additional hops: 2218
Adding flit 41772 as NACK at time 1428
Reenqueueing errored packet 44312 at time 1430
Additional hops: 2226
Adding flit 40637 as NACK at time 1430
Reenqueueing errored packet 40554 at time 1431
Additional hops: 2230
Adding flit 48468 as NACK at time 1432
Reenqueueing errored packet 44375 at time 1433
Reenqueueing errored packet 38311 at time 1433
Additional hops: 2236
Adding flit 44637 as NACK at time 1436
Additional hops: 2244
Adding flit 37464 as NACK at time 1438
Additional hops: 2250
Adding flit 42004 as NACK at time 1440
Reenqueueing errored packet 48468 at time 1441
Additional hops: 2254
Adding flit 52293 as NACK at time 1442
Reenqueueing errored packet 41772 at time 1443
Reenqueueing errored packet 40637 at time 1447
Additional hops: 2264
Adding flit 42990 as NACK at time 1447
Reenqueueing errored packet 44637 at time 1449
Reenqueueing errored packet 52293 at time 1451
Reenqueueing errored packet 42004 at time 1453
Additional hops: 2272
Adding flit 43410 as NACK at time 1454
Reenqueueing errored packet 37464 at time 1455
Additional hops: 2278
Adding flit 48795 as NACK at time 1467
Reenqueueing errored packet 42990 at time 1468
Reenqueueing errored packet 43410 at time 1471
Additional hops: 2283
Adding flit 49255 as NACK at time 1471
Additional hops: 2291
Adding flit 51750 as NACK at time 1472
Additional hops: 2298
Adding flit 47056 as NACK at time 1474
Additional hops: 2312
Adding flit 39538 as NACK at time 1478
Reenqueueing errored packet 48795 at time 1480
Reenqueueing errored packet 49255 at time 1482
Additional hops: 2318
Adding flit 49999 as NACK at time 1482
Additional hops: 2326
Adding flit 40348 as NACK at time 1482
Additional hops: 2328
Adding flit 56056 as NACK at time 1486
Additional hops: 2332
Adding flit 54604 as NACK at time 1486
Additional hops: 2339
Adding flit 52394 as NACK at time 1488
Reenqueueing errored packet 47056 at time 1489
Reenqueueing errored packet 51750 at time 1489
Additional hops: 2348
Adding flit 43180 as NACK at time 1490
Reenqueueing errored packet 56056 at time 1491
Reenqueueing errored packet 54604 at time 1495
Reenqueueing errored packet 49999 at time 1495
Additional hops: 2354
Adding flit 51480 as NACK at time 1496
Additional hops: 2364
Adding flit 43349 as NACK at time 1496
Reenqueueing errored packet 40348 at time 1499
Additional hops: 2372
Adding flit 42115 as NACK at time 1502
Reenqueueing errored packet 52394 at time 1503
Additional hops: 2380
Adding flit 43660 as NACK at time 1503
Additional hops: 2389
Adding flit 49272 as NACK at time 1506
Reenqueueing errored packet 39538 at time 1507
Additional hops: 2399
Adding flit 53347 as NACK at time 1507
Reenqueueing errored packet 51480 at time 1509
Reenqueueing errored packet 43180 at time 1509
Additional hops: 2404
Adding flit 57206 as NACK at time 1510
Additional hops: 2413
Adding flit 41249 as NACK at time 1513
Additional hops: 2422
Adding flit 42106 as NACK at time 1516
Reenqueueing errored packet 43349 at time 1517
Reenqueueing errored packet 42115 at time 1519
Reenqueueing errored packet 43660 at time 1520
Reenqueueing errored packet 57206 at time 1521
Additional hops: 2431
Adding flit 44427 as NACK at time 1524
Reenqueueing errored packet 49272 at time 1525
Additional hops: 2437
Adding flit 42785 as NACK at time 1525
Reenqueueing errored packet 53347 at time 1528
Reenqueueing errored packet 41249 at time 1532
Reenqueueing errored packet 42106 at time 1535
Reenqueueing errored packet 42785 at time 1538
Additional hops: 2445
Adding flit 54315 as NACK at time 1538
Additional hops: 2450
Adding flit 45420 as NACK at time 1542
Reenqueueing errored packet 44427 at time 1543
Additional hops: 2455
Adding flit 49174 as NACK at time 1543
Additional hops: 2465
Adding flit 43445 as NACK at time 1552
Reenqueueing errored packet 45420 at time 1553
Reenqueueing errored packet 49174 at time 1554
Reenqueueing errored packet 54315 at time 1555
Additional hops: 2474
Adding flit 44790 as NACK at time 1556
Additional hops: 2482
Adding flit 52072 as NACK at time 1559
Additional hops: 2490
Adding flit 45147 as NACK at time 1569
Additional hops: 2495
Adding flit 46790 as NACK at time 1570
Reenqueueing errored packet 43445 at time 1573
Additional hops: 2498
Adding flit 51074 as NACK at time 1574
Reenqueueing errored packet 44790 at time 1575
Additional hops: 2505
Adding flit 46868 as NACK at time 1575
Reenqueueing errored packet 52072 at time 1576
Additional hops: 2510
Adding flit 59853 as NACK at time 1577
Additional hops: 2523
Adding flit 41744 as NACK at time 1577
Additional hops: 2530
Adding flit 50598 as NACK at time 1578
Additional hops: 2536
Adding flit 56612 as NACK at time 1578
Reenqueueing errored packet 51074 at time 1581
Reenqueueing errored packet 46790 at time 1581
Additional hops: 2548
Adding flit 45352 as NACK at time 1585
Reenqueueing errored packet 45147 at time 1586
Additional hops: 2555
Adding flit 56727 as NACK at time 1586
Reenqueueing errored packet 59853 at time 1588
Reenqueueing errored packet 46868 at time 1590
Additional hops: 2560
Adding flit 59699 as NACK at time 1590
Reenqueueing errored packet 56612 at time 1591
Additional hops: 2568
Adding flit 50303 as NACK at time 1592
Reenqueueing errored packet 50598 at time 1593
Additional hops: 2571
Adding flit 60826 as NACK at time 1596
Reenqueueing errored packet 59699 at time 1601
Reenqueueing errored packet 56727 at time 1601
Additional hops: 2576
Adding flit 48232 as NACK at time 1601
Additional hops: 2580
Adding flit 58997 as NACK at time 1601
Additional hops: 2592
Adding flit 44729 as NACK at time 1602
Reenqueueing errored packet 60826 at time 1603
Reenqueueing errored packet 41744 at time 1604
Additional hops: 2598
Adding flit 52777 as NACK at time 1604
Reenqueueing errored packet 50303 at time 1609
Reenqueueing errored packet 58997 at time 1610
Reenqueueing errored packet 45352 at time 1610
Reenqueueing errored packet 48232 at time 1612
Reenqueueing errored packet 52777 at time 1617
Additional hops: 2605
Adding flit 52270 as NACK at time 1619
Additional hops: 2616
Adding flit 42167 as NACK at time 1620
Additional hops: 2624
Adding flit 45222 as NACK at time 1620
Additional hops: 2634
Adding flit 44672 as NACK at time 1620
Additional hops: 2643
Adding flit 48274 as NACK at time 1625
Additional hops: 2644
Adding flit 62266 as NACK at time 1626
Additional hops: 2651
Adding flit 54777 as NACK at time 1626
Reenqueueing errored packet 44729 at time 1627
Reenqueueing errored packet 62266 at time 1629
Additional hops: 2660
Adding flit 45192 as NACK at time 1629
Additional hops: 2666
Adding flit 51097 as NACK at time 1629
Reenqueueing errored packet 52270 at time 1634
Reenqueueing errored packet 45222 at time 1637
Reenqueueing errored packet 54777 at time 1641
Reenqueueing errored packet 44672 at time 1641
Reenqueueing errored packet 51097 at time 1642
Reenqueueing errored packet 42167 at time 1643
Additional hops: 2674
Adding flit 43936 as NACK at time 1643
Reenqueueing errored packet 48274 at time 1644
Additional hops: 2679
Adding flit 49415 as NACK at time 1644
Reenqueueing errored packet 45192 at time 1648
Additional hops: 2687
Adding flit 50582 as NACK at time 1650
Additional hops: 2690
Adding flit 63034 as NACK at time 1652
Reenqueueing errored packet 49415 at time 1655
Additional hops: 2695
Adding flit 62705 as NACK at time 1657
Additional hops: 2702
Adding flit 50564 as NACK at time 1657
Reenqueueing errored packet 63034 at time 1659
Additional hops: 2707
Adding flit 62540 as NACK at time 1659
Reenqueueing errored packet 43936 at time 1660
Additional hops: 2715
Adding flit 55079 as NACK at time 1663
Reenqueueing errored packet 50582 at time 1667
Reenqueueing errored packet 62705 at time 1668
Additional hops: 2724
Adding flit 45986 as NACK at time 1668
Additional hops: 2732
Adding flit 48916 as NACK at time 1668
Reenqueueing errored packet 62540 at time 1670
Reenqueueing errored packet 50564 at time 1672
Additional hops: 2736
Adding flit 60339 as NACK at time 1677
Additional hops: 2747
Adding flit 49145 as NACK at time 1678
Additional hops: 2754
Adding flit 60474 as NACK at time 1678
Reenqueueing errored packet 55079 at time 1680
Additional hops: 2761
Adding flit 52532 as NACK at time 1680
Additional hops: 2765
Adding flit 64003 as NACK at time 1684
Reenqueueing errored packet 48916 at time 1685
Reenqueueing errored packet 60339 at time 1686
Reenqueueing errored packet 45986 at time 1687
Additional hops: 2770
Adding flit 57985 as NACK at time 1689
Reenqueueing errored packet 64003 at time 1693
Reenqueueing errored packet 60474 at time 1693
Reenqueueing errored packet 52532 at time 1695
Additional hops: 2778
Adding flit 51758 as NACK at time 1697
Reenqueueing errored packet 57985 at time 1700
Reenqueueing errored packet 49145 at time 1701
Additional hops: 2783
Adding flit 50740 as NACK at time 1707
Additional hops: 2788
Adding flit 57705 as NACK at time 1709
Additional hops: 2796
Adding flit 55719 as NACK at time 1713
Reenqueueing errored packet 51758 at time 1714
Additional hops: 2801
Adding flit 57113 as NACK at time 1714
Reenqueueing errored packet 50740 at time 1718
Additional hops: 2807
Adding flit 65145 as NACK at time 1719
Additional hops: 2816
Adding flit 49653 as NACK at time 1719
Reenqueueing errored packet 57705 at time 1720
Additional hops: 2824
Adding flit 55871 as NACK at time 1720
Additional hops: 2833
Adding flit 61837 as NACK at time 1722
Additional hops: 2841
Adding flit 53159 as NACK at time 1723
Reenqueueing errored packet 57113 at time 1725
Additional hops: 2849
Adding flit 61326 as NACK at time 1725
Reenqueueing errored packet 55719 at time 1730
Additional hops: 2855
Adding flit 57229 as NACK at time 1731
Reenqueueing errored packet 65145 at time 1732
Reenqueueing errored packet 55871 at time 1737
Reenqueueing errored packet 49653 at time 1738
Reenqueueing errored packet 53159 at time 1740
Reenqueueing errored packet 61837 at time 1741
Reenqueueing errored packet 61326 at time 1742
Additional hops: 2859
Adding flit 66229 as NACK at time 1743
Reenqueueing errored packet 57229 at time 1744
Additional hops: 2864
Adding flit 56106 as NACK at time 1745
Additional hops: 2871
Adding flit 54915 as NACK at time 1747
Additional hops: 2877
Adding flit 51752 as NACK at time 1747
Additional hops: 2882
Adding flit 55946 as NACK at time 1751
Reenqueueing errored packet 66229 at time 1752
Reenqueueing errored packet 56106 at time 1756
Reenqueueing errored packet 51752 at time 1760
Additional hops: 2887
Adding flit 60602 as NACK at time 1760
Additional hops: 2892
Adding flit 56923 as NACK at time 1761
Reenqueueing errored packet 55946 at time 1762
Reenqueueing errored packet 54915 at time 1762
Reenqueueing errored packet 60602 at time 1771
Reenqueueing errored packet 56923 at time 1772
Additional hops: 2896
Adding flit 57683 as NACK at time 1774
Additional hops: 2905
Adding flit 53982 as NACK at time 1780
Additional hops: 2912
Adding flit 58075 as NACK at time 1780
Reenqueueing errored packet 57683 at time 1783
Additional hops: 2918
Adding flit 54754 as NACK at time 1788
Reenqueueing errored packet 58075 at time 1795
Additional hops: 2923
Adding flit 55421 as NACK at time 1798
Reenqueueing errored packet 53982 at time 1799
Additional hops: 2930
Adding flit 52171 as NACK at time 1799
Reenqueueing errored packet 54754 at time 1801
Additional hops: 2935
Adding flit 66289 as NACK at time 1801
Additional hops: 2938
Adding flit 59548 as NACK at time 1801
Additional hops: 2945
Adding flit 58188 as NACK at time 1801
Additional hops: 2952
Adding flit 61729 as NACK at time 1801
Additional hops: 2964
Adding flit 55914 as NACK at time 1805
Additional hops: 2967
Adding flit 68779 as NACK at time 1807
Reenqueueing errored packet 59548 at time 1808
Reenqueueing errored packet 55421 at time 1809
Additional hops: 2972
Adding flit 55255 as NACK at time 1810
Reenqueueing errored packet 66289 at time 1812
Additional hops: 2983
Adding flit 52390 as NACK at time 1812
Additional hops: 2990
Adding flit 55118 as NACK at time 1813
Reenqueueing errored packet 68779 at time 1814
Reenqueueing errored packet 52171 at time 1814
Reenqueueing errored packet 61729 at time 1816
Reenqueueing errored packet 58188 at time 1816
Reenqueueing errored packet 55255 at time 1821
Additional hops: 2995
Adding flit 61265 as NACK at time 1823
Reenqueueing errored packet 55118 at time 1828
Reenqueueing errored packet 55914 at time 1830
Reenqueueing errored packet 61265 at time 1834
Reenqueueing errored packet 52390 at time 1835
Additional hops: 3001
Adding flit 49620 as NACK at time 1835
Reenqueueing errored packet 49620 at time 1848
Additional hops: 3013
Adding flit 51134 as NACK at time 1849
Additional hops: 3020
Adding flit 48375 as NACK at time 1850
Reenqueueing errored packet 48375 at time 1865
Additional hops: 3028
Adding flit 64099 as NACK at time 1866
Additional hops: 3036
Adding flit 63701 as NACK at time 1868
Additional hops: 3056
Adding flit 38945 as NACK at time 1872
Reenqueueing errored packet 51134 at time 1874
Additional hops: 3060
Adding flit 66817 as NACK at time 1880
Additional hops: 3069
Adding flit 56909 as NACK at time 1880
Reenqueueing errored packet 64099 at time 1883
Reenqueueing errored packet 63701 at time 1885
Additional hops: 3075
Adding flit 64727 as NACK at time 1888
Reenqueueing errored packet 66817 at time 1889
Reenqueueing errored packet 56909 at time 1899
Reenqueueing errored packet 64727 at time 1901
Additional hops: 3083
Adding flit 54228 as NACK at time 1902
Additional hops: 3092
Adding flit 59315 as NACK at time 1903
Additional hops: 3100
Adding flit 68775 as NACK at time 1911
Reenqueueing errored packet 38945 at time 1913
Additional hops: 3109
Adding flit 55347 as NACK at time 1913
Additional hops: 3117
Adding flit 64118 as NACK at time 1918
Reenqueueing errored packet 54228 at time 1919
Additional hops: 3125
Adding flit 57317 as NACK at time 1919
Reenqueueing errored packet 59315 at time 1922
Additional hops: 3131
Adding flit 65690 as NACK at time 1925
Additional hops: 3132
Adding flit 73707 as NACK at time 1927
Reenqueueing errored packet 68775 at time 1928
Reenqueueing errored packet 73707 at time 1930
Reenqueueing errored packet 55347 at time 1932
Reenqueueing errored packet 64118 at time 1935
Reenqueueing errored packet 57317 at time 1936
Reenqueueing errored packet 65690 at time 1938
Additional hops: 3136
Adding flit 69931 as NACK at time 1938
Additional hops: 3141
Adding flit 61144 as NACK at time 1939
Additional hops: 3147
Adding flit 70173 as NACK at time 1939
Additional hops: 3151
Adding flit 73803 as NACK at time 1946
Reenqueueing errored packet 69931 at time 1947
Additional hops: 3157
Adding flit 58191 as NACK at time 1947
Reenqueueing errored packet 61144 at time 1950
Additional hops: 3164
Adding flit 57458 as NACK at time 1950
Additional hops: 3167
Adding flit 74448 as NACK at time 1951
Reenqueueing errored packet 70173 at time 1952
Additional hops: 3180
Adding flit 53842 as NACK at time 1953
Reenqueueing errored packet 73803 at time 1955
Reenqueueing errored packet 74448 at time 1958
Additional hops: 3186
Adding flit 67060 as NACK at time 1958
Reenqueueing errored packet 58191 at time 1960
Reenqueueing errored packet 57458 at time 1965
Additional hops: 3190
Adding flit 74644 as NACK at time 1967
Reenqueueing errored packet 67060 at time 1971
Additional hops: 3201
Adding flit 56748 as NACK at time 1974
Additional hops: 3209
Adding flit 61564 as NACK at time 1974
Reenqueueing errored packet 74644 at time 1976
Reenqueueing errored packet 53842 at time 1980
Additional hops: 3214
Adding flit 65652 as NACK at time 1983
Additional hops: 3223
Adding flit 53432 as NACK at time 1983
Additional hops: 3231
Adding flit 69493 as NACK at time 1983
Additional hops: 3240
Adding flit 56395 as NACK at time 1989
Reenqueueing errored packet 61564 at time 1991
Reenqueueing errored packet 65652 at time 1994
Reenqueueing errored packet 56748 at time 1997
Reenqueueing errored packet 69493 at time 2000
Reenqueueing errored packet 53432 at time 2002
Additional hops: 3248
Adding flit 55441 as NACK at time 2003
Additional hops: 3253
Adding flit 66880 as NACK at time 2004
Reenqueueing errored packet 56395 at time 2008
Reenqueueing errored packet 66880 at time 2015
Additional hops: 3261
Adding flit 55776 as NACK at time 2016
Reenqueueing errored packet 55441 at time 2020
Reenqueueing errored packet 55776 at time 2033
Additional hops: 3269
Adding flit 57991 as NACK at time 2034
Additional hops: 3272
Adding flit 76934 as NACK at time 2034
Additional hops: 3283
Adding flit 56602 as NACK at time 2036
Reenqueueing errored packet 76934 at time 2041
Additional hops: 3291
Adding flit 58827 as NACK at time 2041
Additional hops: 3300
Adding flit 66555 as NACK at time 2043
Additional hops: 3307
Adding flit 68611 as NACK at time 2044
Additional hops: 3313
Adding flit 75290 as NACK at time 2047
Additional hops: 3321
Adding flit 72771 as NACK at time 2048
Reenqueueing errored packet 57991 at time 2051
Additional hops: 3330
Adding flit 59764 as NACK at time 2054
Additional hops: 3340
Adding flit 59195 as NACK at time 2057
Reenqueueing errored packet 58827 at time 2058
Reenqueueing errored packet 68611 at time 2059
Reenqueueing errored packet 56602 at time 2059
Additional hops: 3344
Adding flit 78199 as NACK at time 2059
Reenqueueing errored packet 75290 at time 2060
Reenqueueing errored packet 66555 at time 2062
Reenqueueing errored packet 72771 at time 2065
Additional hops: 3352
Adding flit 68747 as NACK at time 2065
Reenqueueing errored packet 78199 at time 2068
Additional hops: 3353
Adding flit 79198 as NACK at time 2068
Additional hops: 3360
Adding flit 71644 as NACK at time 2069
Reenqueueing errored packet 79198 at time 2071
Additional hops: 3366
Adding flit 72940 as NACK at time 2071
Additional hops: 3371
Adding flit 70764 as NACK at time 2071
Reenqueueing errored packet 59764 at time 2073
Additional hops: 3380
Adding flit 54416 as NACK at time 2075
Additional hops: 3385
Adding flit 64673 as NACK at time 2075
Additional hops: 3393
Adding flit 71712 as NACK at time 2077
Reenqueueing errored packet 59195 at time 2078
Additional hops: 3398
Adding flit 59927 as NACK at time 2080
Reenqueueing errored packet 70764 at time 2082
Reenqueueing errored packet 68747 at time 2082
Additional hops: 3401
Adding flit 77229 as NACK at time 2083
Reenqueueing errored packet 72940 at time 2084
Reenqueueing errored packet 71644 at time 2084
Additional hops: 3406
Adding flit 79371 as NACK at time 2085
Reenqueueing errored packet 64673 at time 2086
Additional hops: 3413
Adding flit 62272 as NACK at time 2086
Additional hops: 3424
Adding flit 54961 as NACK at time 2087
Additional hops: 3434
Adding flit 64202 as NACK at time 2089
Reenqueueing errored packet 77229 at time 2090
Additional hops: 3442
Adding flit 65328 as NACK at time 2090
Reenqueueing errored packet 59927 at time 2091
Reenqueueing errored packet 71712 at time 2094
Reenqueueing errored packet 54416 at time 2094
Reenqueueing errored packet 79371 at time 2096
Additional hops: 3451
Adding flit 63203 as NACK at time 2096
Reenqueueing errored packet 62272 at time 2101
Additional hops: 3459
Adding flit 72713 as NACK at time 2104
Reenqueueing errored packet 65328 at time 2107
Reenqueueing errored packet 64202 at time 2110
Reenqueueing errored packet 54961 at time 2110
Additional hops: 3468
Adding flit 72298 as NACK at time 2111
Reenqueueing errored packet 63203 at time 2115
Reenqueueing errored packet 72713 at time 2121
Additional hops: 3473
Adding flit 72349 as NACK at time 2122
Additional hops: 3481
Adding flit 65609 as NACK at time 2126
Additional hops: 3490
Adding flit 73392 as NACK at time 2128
Additional hops: 3494
Adding flit 70438 as NACK at time 2129
Reenqueueing errored packet 72298 at time 2130
Additional hops: 3502
Adding flit 63176 as NACK at time 2130
Additional hops: 3508
Adding flit 70156 as NACK at time 2132
Reenqueueing errored packet 72349 at time 2133
Reenqueueing errored packet 70438 at time 2138
Additional hops: 3518
Adding flit 66278 as NACK at time 2142
Reenqueueing errored packet 65609 at time 2143
Reenqueueing errored packet 70156 at time 2145
Additional hops: 3526
Adding flit 69878 as NACK at time 2145
Reenqueueing errored packet 63176 at time 2147
Reenqueueing errored packet 73392 at time 2147
Additional hops: 3538
Adding flit 61148 as NACK at time 2153
Additional hops: 3546
Adding flit 59842 as NACK at time 2154
Additional hops: 3552
Adding flit 71929 as NACK at time 2160
Additional hops: 3561
Adding flit 60909 as NACK at time 2161
Reenqueueing errored packet 69878 at time 2162
Reenqueueing errored packet 66278 at time 2163
Additional hops: 3569
Adding flit 68647 as NACK at time 2166
Reenqueueing errored packet 59842 at time 2171
Reenqueueing errored packet 71929 at time 2173
Additional hops: 3581
Adding flit 54587 as NACK at time 2174
Reenqueueing errored packet 61148 at time 2178
Additional hops: 3595
Adding flit 56857 as NACK at time 2179
Reenqueueing errored packet 60909 at time 2180
Reenqueueing errored packet 68647 at time 2183
Additional hops: 3601
Adding flit 79342 as NACK at time 2187
Additional hops: 3610
Adding flit 69756 as NACK at time 2191
Additional hops: 3616
Adding flit 76193 as NACK at time 2192
Additional hops: 3618
Adding flit 84135 as NACK at time 2198
Reenqueueing errored packet 54587 at time 2199
Reenqueueing errored packet 79342 at time 2200
Reenqueueing errored packet 84135 at time 2203
Reenqueueing errored packet 76193 at time 2205
Reenqueueing errored packet 56857 at time 2208
Additional hops: 3623
Adding flit 84020 as NACK at time 2208
Additional hops: 3630
Adding flit 76145 as NACK at time 2209
Reenqueueing errored packet 69756 at time 2210
Additional hops: 3638
Adding flit 60002 as NACK at time 2212
Additional hops: 3646
Adding flit 74169 as NACK at time 2213
Additional hops: 3655
Adding flit 60058 as NACK at time 2215
Additional hops: 3661
Adding flit 75101 as NACK at time 2218
Reenqueueing errored packet 84020 at time 2219
Additional hops: 3667
Adding flit 78570 as NACK at time 2220
Reenqueueing errored packet 76145 at time 2224
Additional hops: 3679
Adding flit 66128 as NACK at time 2225
Reenqueueing errored packet 60002 at time 2229
Reenqueueing errored packet 74169 at time 2230
Reenqueueing errored packet 75101 at time 2231
Reenqueueing errored packet 78570 at time 2233
Reenqueueing errored packet 60058 at time 2234
Additional hops: 3685
Adding flit 78099 as NACK at time 2247
Reenqueueing errored packet 66128 at time 2250
Additional hops: 3692
Adding flit 73991 as NACK at time 2251
Additional hops: 3703
Adding flit 64148 as NACK at time 2255
Additional hops: 3708
Adding flit 77238 as NACK at time 2255
Reenqueueing errored packet 78099 at time 2260
Additional hops: 3718
Adding flit 62499 as NACK at time 2261
Additional hops: 3729
Adding flit 63476 as NACK at time 2261
Additional hops: 3733
Adding flit 75585 as NACK at time 2263
Reenqueueing errored packet 77238 at time 2266
Reenqueueing errored packet 73991 at time 2266
Additional hops: 3741
Adding flit 67648 as NACK at time 2270
Reenqueueing errored packet 75585 at time 2272
Reenqueueing errored packet 64148 at time 2278
Additional hops: 3749
Adding flit 70740 as NACK at time 2278
Additional hops: 3754
Adding flit 66531 as NACK at time 2278
Additional hops: 3758
Adding flit 66958 as NACK at time 2279
Additional hops: 3762
Adding flit 71765 as NACK at time 2279
Reenqueueing errored packet 62499 at time 2282
Reenqueueing errored packet 63476 at time 2284
Reenqueueing errored packet 67648 at time 2287
Reenqueueing errored packet 71765 at time 2288
Reenqueueing errored packet 66958 at time 2288
Additional hops: 3770
Adding flit 80819 as NACK at time 2288
Reenqueueing errored packet 66531 at time 2289
Additional hops: 3780
Adding flit 61546 as NACK at time 2289
Additional hops: 3788
Adding flit 67756 as NACK at time 2290
Additional hops: 3797
Adding flit 67695 as NACK at time 2290
Reenqueueing errored packet 70740 at time 2295
Additional hops: 3805
Adding flit 79534 as NACK at time 2302
Reenqueueing errored packet 80819 at time 2305
Additional hops: 3810
Adding flit 87659 as NACK at time 2306
Reenqueueing errored packet 67756 at time 2307
Additional hops: 3818
Adding flit 72244 as NACK at time 2307
Reenqueueing errored packet 67695 at time 2309
Reenqueueing errored packet 61546 at time 2310
Additional hops: 3820
Adding flit 88571 as NACK at time 2312
Additional hops: 3825
Adding flit 82136 as NACK at time 2315
Additional hops: 3834
Adding flit 75187 as NACK at time 2316
Reenqueueing errored packet 88571 at time 2317
Reenqueueing errored packet 79534 at time 2319
Additional hops: 3842
Adding flit 76446 as NACK at time 2321
Reenqueueing errored packet 72244 at time 2324
Additional hops: 3847
Adding flit 77534 as NACK at time 2325
Reenqueueing errored packet 82136 at time 2326
Additional hops: 3853
Adding flit 71017 as NACK at time 2333
Reenqueueing errored packet 75187 at time 2335
Reenqueueing errored packet 77534 at time 2336
Additional hops: 3857
Adding flit 89125 as NACK at time 2337
Reenqueueing errored packet 76446 at time 2338
Additional hops: 3861
Adding flit 89169 as NACK at time 2339
Additional hops: 3863
Adding flit 89479 as NACK at time 2340
Additional hops: 3871
Adding flit 65142 as NACK at time 2340
Additional hops: 3874
Adding flit 89554 as NACK at time 2342
Reenqueueing errored packet 89479 at time 2345
Additional hops: 3885
Adding flit 59946 as NACK at time 2345
Reenqueueing errored packet 89125 at time 2346
Reenqueueing errored packet 71017 at time 2346
Reenqueueing errored packet 89169 at time 2348
Reenqueueing errored packet 89554 at time 2349
Additional hops: 3892
Adding flit 70234 as NACK at time 2349
Additional hops: 3895
Adding flit 88168 as NACK at time 2352
Additional hops: 3899
Adding flit 79978 as NACK at time 2355
Reenqueueing errored packet 65142 at time 2357
Additional hops: 3904
Adding flit 81567 as NACK at time 2358
Additional hops: 3907
Adding flit 89969 as NACK at time 2358
Reenqueueing errored packet 88168 at time 2359
Reenqueueing errored packet 79978 at time 2364
Reenqueueing errored packet 70234 at time 2364
Additional hops: 3914
Adding flit 80456 as NACK at time 2364
Additional hops: 3916
Adding flit 88982 as NACK at time 2364
Reenqueueing errored packet 89969 at time 2365
Reenqueueing errored packet 59946 at time 2368
Reenqueueing errored packet 88982 at time 2369
Reenqueueing errored packet 81567 at time 2369
Additional hops: 3923
Adding flit 83295 as NACK at time 2371
Additional hops: 3930
Adding flit 73190 as NACK at time 2371
Additional hops: 3935
Adding flit 87418 as NACK at time 2374
Additional hops: 3943
Adding flit 65487 as NACK at time 2378
Reenqueueing errored packet 80456 at time 2379
Additional hops: 3949
Adding flit 67234 as NACK at time 2381
Additional hops: 3958
Adding flit 71091 as NACK at time 2382
Reenqueueing errored packet 87418 at time 2385
Reenqueueing errored packet 73190 at time 2386
Reenqueueing errored packet 83295 at time 2386
Additional hops: 3965
Adding flit 84083 as NACK at time 2386
Additional hops: 3971
Adding flit 74581 as NACK at time 2387
Additional hops: 3981
Adding flit 68174 as NACK at time 2390
Additional hops: 3986
Adding flit 90100 as NACK at time 2393
Reenqueueing errored packet 67234 at time 2394
Reenqueueing errored packet 65487 at time 2395
Additional hops: 3991
Adding flit 87813 as NACK at time 2395
Reenqueueing errored packet 74581 at time 2400
Additional hops: 3992
Adding flit 92070 as NACK at time 2400
Reenqueueing errored packet 84083 at time 2401
Reenqueueing errored packet 71091 at time 2401
Reenqueueing errored packet 92070 at time 2403
Reenqueueing errored packet 90100 at time 2404
Additional hops: 3999
Adding flit 74664 as NACK at time 2405
Reenqueueing errored packet 87813 at time 2406
Reenqueueing errored packet 68174 at time 2411
Reenqueueing errored packet 74664 at time 2420
Additional hops: 4010
Adding flit 66638 as NACK at time 2422
Additional hops: 4017
Adding flit 67746 as NACK at time 2424
Additional hops: 4031
Adding flit 66246 as NACK at time 2432
Reenqueueing errored packet 67746 at time 2439
Reenqueueing errored packet 66638 at time 2445
Additional hops: 4038
Adding flit 72044 as NACK at time 2456
Additional hops: 4046
Adding flit 84364 as NACK at time 2457
Reenqueueing errored packet 66246 at time 2461
Additional hops: 4055
Adding flit 72208 as NACK at time 2462
Additional hops: 4065
Adding flit 66363 as NACK at time 2466
Additional hops: 4075
Adding flit 86557 as NACK at time 2470
Reenqueueing errored packet 72044 at time 2471
Reenqueueing errored packet 84364 at time 2474
Additional hops: 4084
Adding flit 75629 as NACK at time 2479
Reenqueueing errored packet 72208 at time 2481
Reenqueueing errored packet 66363 at time 2487
Reenqueueing errored packet 86557 at time 2491
Additional hops: 4089
Adding flit 84930 as NACK at time 2497
Reenqueueing errored packet 75629 at time 2498
Additional hops: 4096
Adding flit 75519 as NACK at time 2501
Additional hops: 4099
Adding flit 89663 as NACK at time 2503
Reenqueueing errored packet 84930 at time 2508
Additional hops: 4104
Adding flit 84291 as NACK at time 2508
Reenqueueing errored packet 89663 at time 2510
Reenqueueing errored packet 75519 at time 2516
Additional hops: 4108
Adding flit 86106 as NACK at time 2516
Reenqueueing errored packet 84291 at time 2519
Additional hops: 4112
Adding flit 86606 as NACK at time 2519
Additional hops: 4121
Adding flit 70120 as NACK at time 2522
Additional hops: 4127
Adding flit 83436 as NACK at time 2523
Reenqueueing errored packet 86106 at time 2525
Additional hops: 4136
Adding flit 85987 as NACK at time 2525
Additional hops: 4146
Adding flit 71672 as NACK at time 2527
Reenqueueing errored packet 86606 at time 2528
Additional hops: 4151
Adding flit 85594 as NACK at time 2530
Additional hops: 4153
Adding flit 90428 as NACK at time 2531
Additional hops: 4156
Adding flit 86825 as NACK at time 2535
Reenqueueing errored packet 90428 at time 2536
Reenqueueing errored packet 83436 at time 2536
Additional hops: 4161
Adding flit 96491 as NACK at time 2537
Additional hops: 4165
Adding flit 96157 as NACK at time 2538
Reenqueueing errored packet 85594 at time 2541
Reenqueueing errored packet 70120 at time 2541
Reenqueueing errored packet 86825 at time 2542
Reenqueueing errored packet 85987 at time 2544
Additional hops: 4172
Adding flit 75155 as NACK at time 2546
Reenqueueing errored packet 96157 at time 2547
Reenqueueing errored packet 96491 at time 2548
Reenqueueing errored packet 71672 at time 2548
Additional hops: 4176
Adding flit 95055 as NACK at time 2550
Additional hops: 4184
Adding flit 69809 as NACK at time 2550
Additional hops: 4192
Adding flit 90421 as NACK at time 2555
Reenqueueing errored packet 95055 at time 2559
Reenqueueing errored packet 75155 at time 2561
Additional hops: 4201
Adding flit 69458 as NACK at time 2564
Additional hops: 4208
Adding flit 76785 as NACK at time 2565
Reenqueueing errored packet 69809 at time 2567
Additional hops: 4214
Adding flit 84722 as NACK at time 2567
Additional hops: 4220
Adding flit 88337 as NACK at time 2568
Additional hops: 4232
Adding flit 69904 as NACK at time 2571
Additional hops: 4238
Adding flit 79365 as NACK at time 2571
Reenqueueing errored packet 90421 at time 2572
Additional hops: 4242
Adding flit 98332 as NACK at time 2576
Reenqueueing errored packet 84722 at time 2580
Reenqueueing errored packet 76785 at time 2580
Additional hops: 4249
Adding flit 92612 as NACK at time 2580
Reenqueueing errored packet 88337 at time 2581
Additional hops: 4255
Adding flit 88639 as NACK at time 2582
Reenqueueing errored packet 69458 at time 2583
Additional hops: 4259
Adding flit 86734 as NACK at time 2583
Reenqueueing errored packet 79365 at time 2584
Reenqueueing errored packet 98332 at time 2585
Additional hops: 4262
Adding flit 92028 as NACK at time 2591
Reenqueueing errored packet 86734 at time 2592
Reenqueueing errored packet 88639 at time 2595
Reenqueueing errored packet 92612 at time 2595
Reenqueueing errored packet 69904 at time 2596
Additional hops: 4267
Adding flit 77251 as NACK at time 2597
Reenqueueing errored packet 92028 at time 2598
Additional hops: 4277
Adding flit 79320 as NACK at time 2602
Additional hops: 4283
Adding flit 77397 as NACK at time 2602
Additional hops: 4288
Adding flit 88558 as NACK at time 2605
Additional hops: 4298
Adding flit 72842 as NACK at time 2607
Reenqueueing errored packet 77251 at time 2608
Additional hops: 4307
Adding flit 78943 as NACK at time 2608
Additional hops: 4313
Adding flit 87282 as NACK at time 2613
Reenqueueing errored packet 77397 at time 2615
Reenqueueing errored packet 88558 at time 2616
Additional hops: 4325
Adding flit 71642 as NACK at time 2616
Reenqueueing errored packet 79320 at time 2623
Reenqueueing errored packet 87282 at time 2626
Reenqueueing errored packet 78943 at time 2627
Reenqueueing errored packet 72842 at time 2628
Additional hops: 4338
Adding flit 72022 as NACK at time 2637
Additional hops: 4340
Adding flit 95043 as NACK at time 2640
Reenqueueing errored packet 71642 at time 2641
Reenqueueing errored packet 95043 at time 2645
Additional hops: 4350
Adding flit 72578 as NACK at time 2646
Additional hops: 4355
Adding flit 91406 as NACK at time 2647
Additional hops: 4362
Adding flit 90874 as NACK at time 2650
Additional hops: 4373
Adding flit 73069 as NACK at time 2653
Additional hops: 4382
Adding flit 70816 as NACK at time 2654
Reenqueueing errored packet 91406 at time 2658
Reenqueueing errored packet 72022 at time 2664
Additional hops: 4390
Adding flit 84043 as NACK at time 2664
Reenqueueing errored packet 90874 at time 2665
Reenqueueing errored packet 72578 at time 2667
Additional hops: 4399
Adding flit 82019 as NACK at time 2669
Additional hops: 4411
Adding flit 73698 as NACK at time 2671
Additional hops: 4421
Adding flit 91132 as NACK at time 2672
Reenqueueing errored packet 70816 at time 2673
Additional hops: 4430
Adding flit 84174 as NACK at time 2673
Additional hops: 4438
Adding flit 79431 as NACK at time 2675
Reenqueueing errored packet 73069 at time 2676
Additional hops: 4442
Adding flit 95508 as NACK at time 2676
Reenqueueing errored packet 84043 at time 2681
Additional hops: 4455
Adding flit 68817 as NACK at time 2682
Additional hops: 4461
Adding flit 85131 as NACK at time 2682
Reenqueueing errored packet 95508 at time 2685
Reenqueueing errored packet 82019 at time 2688
Additional hops: 4464
Adding flit 90449 as NACK at time 2689
Additional hops: 4467
Adding flit 94657 as NACK at time 2691
Reenqueueing errored packet 79431 at time 2692
Reenqueueing errored packet 84174 at time 2692
Additional hops: 4477
Adding flit 82288 as NACK at time 2692
Reenqueueing errored packet 91132 at time 2693
Additional hops: 4484
Adding flit 81096 as NACK at time 2693
Reenqueueing errored packet 85131 at time 2695
Reenqueueing errored packet 90449 at time 2696
Reenqueueing errored packet 73698 at time 2696
Reenqueueing errored packet 94657 at time 2698
Additional hops: 4491
Adding flit 92795 as NACK at time 2700
Additional hops: 4501
Adding flit 75107 as NACK at time 2701
Additional hops: 4512
Adding flit 74095 as NACK at time 2704
Additional hops: 4520
Adding flit 79031 as NACK at time 2705
Additional hops: 4526
Adding flit 79889 as NACK at time 2706
Additional hops: 4534
Adding flit 83879 as NACK at time 2706
Reenqueueing errored packet 81096 at time 2708
Reenqueueing errored packet 68817 at time 2709
Reenqueueing errored packet 82288 at time 2713
Additional hops: 4544
Adding flit 80288 as NACK at time 2713
Reenqueueing errored packet 92795 at time 2715
Reenqueueing errored packet 79889 at time 2719
Additional hops: 4551
Adding flit 80474 as NACK at time 2720
Reenqueueing errored packet 79031 at time 2722
Reenqueueing errored packet 75107 at time 2722
Reenqueueing errored packet 83879 at time 2723
Additional hops: 4561
Adding flit 80488 as NACK at time 2725
Reenqueueing errored packet 74095 at time 2727
Additional hops: 4569
Adding flit 80799 as NACK at time 2728
Additional hops: 4571
Adding flit 97505 as NACK at time 2732
Reenqueueing errored packet 80288 at time 2734
Reenqueueing errored packet 80474 at time 2735
Additional hops: 4577
Adding flit 97036 as NACK at time 2735
Reenqueueing errored packet 97505 at time 2737
Additional hops: 4581
Adding flit 92401 as NACK at time 2738
Reenqueueing errored packet 80799 at time 2745
Reenqueueing errored packet 80488 at time 2746
Reenqueueing errored packet 92401 at time 2747
Reenqueueing errored packet 97036 at time 2748
Additional hops: 4589
Adding flit 82458 as NACK at time 2756
Additional hops: 4598
Adding flit 74931 as NACK at time 2761
Additional hops: 4601
Adding flit 105943 as NACK at time 2770
Reenqueueing errored packet 82458 at time 2773
Additional hops: 4604
Adding flit 105870 as NACK at time 2774
Reenqueueing errored packet 105943 at time 2777
Reenqueueing errored packet 74931 at time 2780
Reenqueueing errored packet 105870 at time 2781
Additional hops: 4614
Adding flit 74480 as NACK at time 2786
Additional hops: 4624
Adding flit 71297 as NACK at time 2786
Additional hops: 4630
Adding flit 92285 as NACK at time 2791
Additional hops: 4633
Adding flit 92770 as NACK at time 2792
Additional hops: 4644
Adding flit 78052 as NACK at time 2797
Reenqueueing errored packet 92770 at time 2799
Reenqueueing errored packet 92285 at time 2804
Additional hops: 4653
Adding flit 84042 as NACK at time 2804
Reenqueueing errored packet 71297 at time 2807
Reenqueueing errored packet 74480 at time 2807
Additional hops: 4657
Adding flit 106164 as NACK at time 2816
Additional hops: 4663
Adding flit 98320 as NACK at time 2817
Reenqueueing errored packet 78052 at time 2820
Additional hops: 4674
Adding flit 86439 as NACK at time 2820
Additional hops: 4679
Adding flit 100048 as NACK at time 2820
Reenqueueing errored packet 84042 at time 2823
Reenqueueing errored packet 106164 at time 2825
Reenqueueing errored packet 98320 at time 2830
Additional hops: 4687
Adding flit 83683 as NACK at time 2830
Reenqueueing errored packet 100048 at time 2831
Reenqueueing errored packet 86439 at time 2843
Reenqueueing errored packet 83683 at time 2847
Additional hops: 4694
Adding flit 84602 as NACK at time 2848
Additional hops: 4706
Adding flit 77805 as NACK at time 2848
Additional hops: 4712
Adding flit 104000 as NACK at time 2851
Additional hops: 4718
Adding flit 92291 as NACK at time 2855
Additional hops: 4727
Adding flit 84703 as NACK at time 2856
Additional hops: 4730
Adding flit 101761 as NACK at time 2857
Additional hops: 4738
Adding flit 85001 as NACK at time 2862
Additional hops: 4745
Adding flit 99997 as NACK at time 2862
Reenqueueing errored packet 84602 at time 2863
Reenqueueing errored packet 101761 at time 2864
Reenqueueing errored packet 104000 at time 2864
Additional hops: 4748
Adding flit 109470 as NACK at time 2864
Additional hops: 4755
Adding flit 85583 as NACK at time 2866
Additional hops: 4763
Adding flit 75710 as NACK at time 2867
Reenqueueing errored packet 92291 at time 2868
Reenqueueing errored packet 109470 at time 2871
Additional hops: 4776
Adding flit 79027 as NACK at time 2871
Reenqueueing errored packet 77805 at time 2873
Additional hops: 4782
Adding flit 90285 as NACK at time 2873
Reenqueueing errored packet 84703 at time 2875
Reenqueueing errored packet 99997 at time 2877
Reenqueueing errored packet 85001 at time 2879
Reenqueueing errored packet 85583 at time 2881
Reenqueueing errored packet 75710 at time 2884
Additional hops: 4790
Adding flit 92639 as NACK at time 2884
Reenqueueing errored packet 90285 at time 2886
Additional hops: 4793
Adding flit 110520 as NACK at time 2891
Additional hops: 4795
Adding flit 110695 as NACK at time 2891
Additional hops: 4798
Adding flit 110110 as NACK at time 2893
Additional hops: 4807
Adding flit 82784 as NACK at time 2895
Reenqueueing errored packet 110695 at time 2896
Additional hops: 4815
Adding flit 98845 as NACK at time 2896
Reenqueueing errored packet 110520 at time 2898
Reenqueueing errored packet 79027 at time 2898
Reenqueueing errored packet 110110 at time 2900
Reenqueueing errored packet 92639 at time 2901
Additional hops: 4824
Adding flit 94734 as NACK at time 2901
Additional hops: 4828
Adding flit 109638 as NACK at time 2909
Reenqueueing errored packet 98845 at time 2913
Additional hops: 4839
Adding flit 81076 as NACK at time 2913
Reenqueueing errored packet 82784 at time 2914
Additional hops: 4843
Adding flit 111291 as NACK at time 2915
Reenqueueing errored packet 109638 at time 2918
Reenqueueing errored packet 94734 at time 2920
Additional hops: 4849
Adding flit 97703 as NACK at time 2921
Additional hops: 4854
Adding flit 88625 as NACK at time 2923
Reenqueueing errored packet 111291 at time 2924
Additional hops: 4857
Adding flit 102043 as NACK at time 2924
Additional hops: 4863
Adding flit 101607 as NACK at time 2927
Additional hops: 4871
Adding flit 99560 as NACK at time 2930
Reenqueueing errored packet 102043 at time 2931
Additional hops: 4878
Adding flit 92181 as NACK at time 2933
Reenqueueing errored packet 88625 at time 2934
Reenqueueing errored packet 97703 at time 2934
Additional hops: 4884
Adding flit 96963 as NACK at time 2935
Reenqueueing errored packet 81076 at time 2936
Reenqueueing errored packet 101607 at time 2940
Additional hops: 4890
Adding flit 96483 as NACK at time 2941
Additional hops: 4899
Adding flit 79284 as NACK at time 2941
Additional hops: 4906
Adding flit 85673 as NACK at time 2941
Additional hops: 4916
Adding flit 86303 as NACK at time 2944
Additional hops: 4929
Adding flit 78548 as NACK at time 2945
Reenqueueing errored packet 99560 at time 2947
Reenqueueing errored packet 96963 at time 2948
Reenqueueing errored packet 92181 at time 2948
Additional hops: 4937
Adding flit 89349 as NACK at time 2951
Reenqueueing errored packet 96483 at time 2954
Reenqueueing errored packet 85673 at time 2956
Additional hops: 4939
Adding flit 113255 as NACK at time 2956
Additional hops: 4946
Adding flit 92997 as NACK at time 2957
Reenqueueing errored packet 79284 at time 2960
Additional hops: 4948
Adding flit 110480 as NACK at time 2960
Reenqueueing errored packet 113255 at time 2961
Additional hops: 4957
Adding flit 87937 as NACK at time 2961
Additional hops: 4966
Adding flit 83627 as NACK at time 2964
Reenqueueing errored packet 110480 at time 2965
Reenqueueing errored packet 86303 at time 2965
Reenqueueing errored packet 89349 at time 2968
Additional hops: 4970
Adding flit 113255 as NACK at time 2971
Reenqueueing errored packet 92997 at time 2972
Reenqueueing errored packet 78548 at time 2972
Additional hops: 4979
Adding flit 81195 as NACK at time 2972
Additional hops: 4985
Adding flit 103223 as NACK at time 2975
Reenqueueing errored packet 113255 at time 2980
Reenqueueing errored packet 87937 at time 2980
Reenqueueing errored packet 83627 at time 2983
Additional hops: 4989
Adding flit 113869 as NACK at time 2983
Reenqueueing errored packet 103223 at time 2988
Additional hops: 4998
Adding flit 91249 as NACK at time 2988
Reenqueueing errored packet 81195 at time 2991
Reenqueueing errored packet 113869 at time 2992
Additional hops: 5004
Adding flit 105236 as NACK at time 2993
Additional hops: 5013
Adding flit 79667 as NACK at time 2998
Additional hops: 5023
Adding flit 93524 as NACK at time 2999
Reenqueueing errored packet 105236 at time 3006
Reenqueueing errored packet 91249 at time 3007
Additional hops: 5028
Adding flit 92623 as NACK at time 3010
Additional hops: 5036
Adding flit 101169 as NACK at time 3011
Additional hops: 5046
Adding flit 82902 as NACK at time 3014
Additional hops: 5053
Adding flit 103670 as NACK at time 3016
Reenqueueing errored packet 79667 at time 3017
Reenqueueing errored packet 93524 at time 3020
Reenqueueing errored packet 92623 at time 3021
Reenqueueing errored packet 101169 at time 3028
Reenqueueing errored packet 103670 at time 3031
Reenqueueing errored packet 82902 at time 3035
Additional hops: 5059
Adding flit 107772 as NACK at time 3044
Additional hops: 5064
Adding flit 101996 as NACK at time 3050
Reenqueueing errored packet 107772 at time 3057
Additional hops: 5068
Adding flit 109528 as NACK at time 3057
Reenqueueing errored packet 101996 at time 3061
Reenqueueing errored packet 109528 at time 3066
Additional hops: 5078
Adding flit 103756 as NACK at time 3066
Additional hops: 5080
Adding flit 112542 as NACK at time 3067
Reenqueueing errored packet 112542 at time 3072
Additional hops: 5085
Adding flit 117171 as NACK at time 3072
Additional hops: 5095
Adding flit 90773 as NACK at time 3072
Additional hops: 5101
Adding flit 113346 as NACK at time 3076
Additional hops: 5113
Adding flit 89859 as NACK at time 3082
Reenqueueing errored packet 117171 at time 3083
Additional hops: 5119
Adding flit 107208 as NACK at time 3083
Reenqueueing errored packet 103756 at time 3087
Reenqueueing errored packet 113346 at time 3089
Reenqueueing errored packet 90773 at time 3093
Reenqueueing errored packet 107208 at time 3096
Additional hops: 5129
Adding flit 85677 as NACK at time 3099
Additional hops: 5134
Adding flit 118505 as NACK at time 3102
Additional hops: 5138
Adding flit 112483 as NACK at time 3103
Reenqueueing errored packet 89859 at time 3107
Additional hops: 5149
Adding flit 86060 as NACK at time 3108
Additional hops: 5161
Adding flit 87246 as NACK at time 3108
Reenqueueing errored packet 112483 at time 3112
Additional hops: 5172
Adding flit 82162 as NACK at time 3112
Reenqueueing errored packet 118505 at time 3113
Reenqueueing errored packet 85677 at time 3120
Reenqueueing errored packet 86060 at time 3131
Reenqueueing errored packet 87246 at time 3133
Additional hops: 5182
Adding flit 98105 as NACK at time 3134
Reenqueueing errored packet 82162 at time 3135
Additional hops: 5194
Adding flit 85921 as NACK at time 3137
Additional hops: 5206
[...]
Additional hops: 15339
Adding flit 276389 as NACK at time 9188
Reenqueueing errored packet 277111 at time 9189
Reenqueueing errored packet 271100 at time 9191
Reenqueueing errored packet 282392 at time 9199
Reenqueueing errored packet 287710 at time 9201
Reenqueueing errored packet 296346 at time 9201
Reenqueueing errored packet 276389 at time 9203
Additional hops: 15342
Adding flit 325431 as NACK at time 9212
Additional hops: 15350
Adding flit 309521 as NACK at time 9213
Additional hops: 15353
Adding flit 332562 as NACK at time 9216
Reenqueueing errored packet 325431 at time 9219
Additional hops: 15356
Adding flit 350707 as NACK at time 9220
Reenqueueing errored packet 332562 at time 9223
Reenqueueing errored packet 350707 at time 9227
Additional hops: 15359
Adding flit 284792 as NACK at time 9228
Reenqueueing errored packet 309521 at time 9230
Additional hops: 15361
Adding flit 331034 as NACK at time 9234
Reenqueueing errored packet 284792 at time 9235
Additional hops: 15368
Adding flit 309930 as NACK at time 9236
Additional hops: 15371
Adding flit 339473 as NACK at time 9237
Reenqueueing errored packet 331034 at time 9239
Additional hops: 15376
Adding flit 307167 as NACK at time 9239
Additional hops: 15380
Adding flit 315199 as NACK at time 9241
Additional hops: 15391
Adding flit 326025 as NACK at time 9243
Reenqueueing errored packet 339473 at time 9244
Reenqueueing errored packet 315199 at time 9250
Reenqueueing errored packet 307167 at time 9250
Reenqueueing errored packet 309930 at time 9251
Additional hops: 15397
Adding flit 340114 as NACK at time 9256
Additional hops: 15403
Adding flit 333581 as NACK at time 9257
Additional hops: 15412
Adding flit 255957 as NACK at time 9259
Additional hops: 15421
Adding flit 247021 as NACK at time 9260
Additional hops: 15423
Adding flit 352315 as NACK at time 9262
Additional hops: 15435
Adding flit 233329 as NACK at time 9264
Reenqueueing errored packet 326025 at time 9266
Reenqueueing errored packet 352315 at time 9267
Reenqueueing errored packet 340114 at time 9269
Reenqueueing errored packet 333581 at time 9270
Additional hops: 15440
Adding flit 351818 as NACK at time 9271
Reenqueueing errored packet 255957 at time 9278
Additional hops: 15443
Adding flit 303824 as NACK at time 9278
Reenqueueing errored packet 351818 at time 9282
Additional hops: 15456
Adding flit 249743 as NACK at time 9283
Additional hops: 15460
Adding flit 334551 as NACK at time 9285
Reenqueueing errored packet 233329 at time 9289
Additional hops: 15466
Adding flit 300303 as NACK at time 9289
Reenqueueing errored packet 334551 at time 9294
Additional hops: 15476
Adding flit 252770 as NACK at time 9300
Reenqueueing errored packet 300303 at time 9302
Additional hops: 15482
Adding flit 312716 as NACK at time 9309
Reenqueueing errored packet 249743 at time 9310
Additional hops: 15485
Adding flit 335814 as NACK at time 9312
Reenqueueing errored packet 335814 at time 9319
Reenqueueing errored packet 252770 at time 9321
Additional hops: 15492
Adding flit 314661 as NACK at time 9321
Additional hops: 15501
Adding flit 272322 as NACK at time 9321
Reenqueueing errored packet 312716 at time 9322
Additional hops: 15509
Adding flit 257533 as NACK at time 9324
Additional hops: 15510
Adding flit 353829 as NACK at time 9327
Reenqueueing errored packet 353829 at time 9330
Additional hops: 15515
Adding flit 335979 as NACK at time 9332
Additional hops: 15525
Adding flit 257205 as NACK at time 9335
Reenqueueing errored packet 314661 at time 9336
Reenqueueing errored packet 272322 at time 9340
Reenqueueing errored packet 257533 at time 9341
Additional hops: 15531
Adding flit 339881 as NACK at time 9342
Reenqueueing errored packet 335979 at time 9343
Additional hops: 15536
Adding flit 317317 as NACK at time 9351
Additional hops: 15546
Adding flit 257495 as NACK at time 9352
Additional hops: 15553
Adding flit 313141 as NACK at time 9354
Reenqueueing errored packet 339881 at time 9355
Reenqueueing errored packet 257205 at time 9356
Additional hops: 15560
Adding flit 326758 as NACK at time 9357
Reenqueueing errored packet 317317 at time 9362
Additional hops: 15566
Adding flit 281646 as NACK at time 9362
Additional hops: 15574
Adding flit 259957 as NACK at time 9365
Additional hops: 15582
Adding flit 282106 as NACK at time 9366
Reenqueueing errored packet 313141 at time 9369
Reenqueueing errored packet 326758 at time 9372
Additional hops: 15588
Adding flit 296234 as NACK at time 9372
Reenqueueing errored packet 257495 at time 9373
Additional hops: 15593
Adding flit 337517 as NACK at time 9377
Additional hops: 15599
Adding flit 337673 as NACK at time 9382
Reenqueueing errored packet 296234 at time 9385
Reenqueueing errored packet 337517 at time 9388
Reenqueueing errored packet 337673 at time 9395
Additional hops: 15608
Adding flit 300912 as NACK at time 9411
Additional hops: 15614
Adding flit 318211 as NACK at time 9418
Additional hops: 15616
Adding flit 357643 as NACK at time 9420
Additional hops: 15620
Adding flit 282303 as NACK at time 9422
Reenqueueing errored packet 357643 at time 9425
Additional hops: 15625
Adding flit 307923 as NACK at time 9427
Reenqueueing errored packet 300912 at time 9430
Reenqueueing errored packet 282303 at time 9431
Reenqueueing errored packet 318211 at time 9431
Additional hops: 15633
Adding flit 325370 as NACK at time 9433
Additional hops: 15642
Adding flit 232572 as NACK at time 9434
Reenqueueing errored packet 307923 at time 9438
Additional hops: 15650
Adding flit 266839 as NACK at time 9438
Additional hops: 15662
Adding flit 303458 as NACK at time 9445
Additional hops: 15673
Adding flit 316388 as NACK at time 9448
Reenqueueing errored packet 325370 at time 9450
Additional hops: 15683
Adding flit 250236 as NACK at time 9458
Additional hops: 15692
Adding flit 324689 as NACK at time 9462
Additional hops: 15698
Adding flit 326297 as NACK at time 9462
Additional hops: 15709
Adding flit 263898 as NACK at time 9464
Additional hops: 15720
Adding flit 244915 as NACK at time 9466
Additional hops: 15726
Adding flit 272053 as NACK at time 9467
Reenqueueing errored packet 303458 at time 9470
Reenqueueing errored packet 316388 at time 9471
Reenqueueing errored packet 326297 at time 9475
Reenqueueing errored packet 250236 at time 9479
Additional hops: 15731
Adding flit 321270 as NACK at time 9479
Reenqueueing errored packet 324689 at time 9481
Additional hops: 15742
Adding flit 265783 as NACK at time 9482
Additional hops: 15748
Adding flit 341725 as NACK at time 9484
Reenqueueing errored packet 263898 at time 9487
Reenqueueing errored packet 321270 at time 9490
Reenqueueing errored packet 341725 at time 9497
Additional hops: 15756
Adding flit 328896 as NACK at time 9497
Additional hops: 15765
Adding flit 310439 as NACK at time 9501
Additional hops: 15772
Adding flit 321626 as NACK at time 9502
Additional hops: 15775
Adding flit 360660 as NACK at time 9504
Reenqueueing errored packet 265783 at time 9505
Additional hops: 15780
Adding flit 301680 as NACK at time 9506
Additional hops: 15787
Adding flit 309469 as NACK at time 9506
Additional hops: 15792
Adding flit 311560 as NACK at time 9508
Additional hops: 15798
Adding flit 324525 as NACK at time 9510
Reenqueueing errored packet 360660 at time 9511
Reenqueueing errored packet 328896 at time 9514
Additional hops: 15806
Adding flit 342722 as NACK at time 9515
Additional hops: 15809
Adding flit 360700 as NACK at time 9516
Reenqueueing errored packet 301680 at time 9517
Reenqueueing errored packet 321626 at time 9517
Reenqueueing errored packet 311560 at time 9519
Reenqueueing errored packet 310439 at time 9520
Reenqueueing errored packet 309469 at time 9521
Additional hops: 15815
Adding flit 342608 as NACK at time 9521
Reenqueueing errored packet 360700 at time 9523
Reenqueueing errored packet 324525 at time 9523
Additional hops: 15824
Adding flit 302673 as NACK at time 9523
Additional hops: 15829
Adding flit 272467 as NACK at time 9527
Additional hops: 15834
Adding flit 343347 as NACK at time 9529
Reenqueueing errored packet 342722 at time 9532
Reenqueueing errored packet 342608 at time 9534
Additional hops: 15840
Adding flit 348592 as NACK at time 9534
Additional hops: 15848
Adding flit 326352 as NACK at time 9534
Additional hops: 15855
Adding flit 300506 as NACK at time 9535
Additional hops: 15863
Adding flit 304702 as NACK at time 9536
Additional hops: 15867
Adding flit 288754 as NACK at time 9537
Reenqueueing errored packet 272467 at time 9538
Reenqueueing errored packet 343347 at time 9540
Reenqueueing errored packet 302673 at time 9542
Additional hops: 15873
Adding flit 276729 as NACK at time 9543
Reenqueueing errored packet 288754 at time 9546
Additional hops: 15885
Adding flit 235300 as NACK at time 9546
Reenqueueing errored packet 348592 at time 9547
Reenqueueing errored packet 300506 at time 9550
Additional hops: 15891
Adding flit 361397 as NACK at time 9550
Reenqueueing errored packet 326352 at time 9551
Reenqueueing errored packet 304702 at time 9553
Additional hops: 15894
Adding flit 361854 as NACK at time 9553
Additional hops: 15902
Adding flit 329068 as NACK at time 9556
Reenqueueing errored packet 361854 at time 9560
Reenqueueing errored packet 361397 at time 9563
Additional hops: 15907
Adding flit 268476 as NACK at time 9570
Reenqueueing errored packet 235300 at time 9571
Reenqueueing errored packet 329068 at time 9573
Additional hops: 15910
Adding flit 341848 as NACK at time 9576
Additional hops: 15917
Adding flit 324529 as NACK at time 9576
Reenqueueing errored packet 268476 at time 9581
Reenqueueing errored packet 341848 at time 9583
Additional hops: 15923
Adding flit 345651 as NACK at time 9588
Additional hops: 15934
Adding flit 252259 as NACK at time 9588
Reenqueueing errored packet 324529 at time 9591
Additional hops: 15937
Adding flit 295397 as NACK at time 9596
Reenqueueing errored packet 345651 at time 9601
Reenqueueing errored packet 295397 at time 9603
Additional hops: 15944
Adding flit 298780 as NACK at time 9603
Additional hops: 15949
Adding flit 347338 as NACK at time 9609
Reenqueueing errored packet 252259 at time 9611
Additional hops: 15959
Adding flit 334786 as NACK at time 9611
Additional hops: 15967
Adding flit 275543 as NACK at time 9613
Reenqueueing errored packet 298780 at time 9618
Reenqueueing errored packet 347338 at time 9620
Additional hops: 15974
Adding flit 266288 as NACK at time 9623
Additional hops: 15977
Adding flit 363564 as NACK at time 9624
Reenqueueing errored packet 275543 at time 9630
Additional hops: 15983
Adding flit 337842 as NACK at time 9630
Reenqueueing errored packet 363564 at time 9631
Reenqueueing errored packet 334786 at time 9632
Additional hops: 15989
Adding flit 325610 as NACK at time 9637
Additional hops: 15994
Adding flit 283904 as NACK at time 9639
Reenqueueing errored packet 337842 at time 9643
Additional hops: 16003
Adding flit 264453 as NACK at time 9646
Additional hops: 16011
Adding flit 335643 as NACK at time 9647
Reenqueueing errored packet 325610 at time 9650
Additional hops: 16018
Adding flit 325864 as NACK at time 9655
Reenqueueing errored packet 335643 at time 9664
Additional hops: 16025
Adding flit 333037 as NACK at time 9665
Reenqueueing errored packet 325864 at time 9670
Additional hops: 16035
Adding flit 243494 as NACK at time 9670
Additional hops: 16039
Adding flit 267574 as NACK at time 9671
Additional hops: 16044
Adding flit 327000 as NACK at time 9674
Additional hops: 16056
Adding flit 238411 as NACK at time 9679
Additional hops: 16076
Adding flit 289386 as NACK at time 9679
Additional hops: 16083
Adding flit 356682 as NACK at time 9679
Reenqueueing errored packet 333037 at time 9680
Additional hops: 16093
Adding flit 261281 as NACK at time 9680
Reenqueueing errored packet 327000 at time 9685
Additional hops: 16101
Adding flit 284309 as NACK at time 9686
Reenqueueing errored packet 243494 at time 9691
Reenqueueing errored packet 356682 at time 9694
Additional hops: 16107
Adding flit 338697 as NACK at time 9699
Reenqueueing errored packet 261281 at time 9701
Additional hops: 16114
Adding flit 312849 as NACK at time 9701
Reenqueueing errored packet 284309 at time 9703
Additional hops: 16120
Adding flit 332454 as NACK at time 9703
Additional hops: 16127
Adding flit 337575 as NACK at time 9704
Additional hops: 16138
Adding flit 295459 as NACK at time 9705
Additional hops: 16147
Adding flit 330884 as NACK at time 9708
Reenqueueing errored packet 338697 at time 9712
Reenqueueing errored packet 332454 at time 9716
Reenqueueing errored packet 312849 at time 9716
Reenqueueing errored packet 337575 at time 9719
Reenqueueing errored packet 289386 at time 9720
Additional hops: 16152
Adding flit 367817 as NACK at time 9720
Additional hops: 16161
Adding flit 329607 as NACK at time 9721
Additional hops: 16171
Adding flit 262085 as NACK at time 9721
Additional hops: 16176
Adding flit 350060 as NACK at time 9724
Additional hops: 16185
Adding flit 301572 as NACK at time 9724
Reenqueueing errored packet 330884 at time 9727
Additional hops: 16191
Adding flit 349719 as NACK at time 9727
Reenqueueing errored packet 295459 at time 9728
Additional hops: 16196
Adding flit 350288 as NACK at time 9730
Reenqueueing errored packet 367817 at time 9731
Reenqueueing errored packet 350060 at time 9735
Reenqueueing errored packet 349719 at time 9740
Reenqueueing errored packet 329607 at time 9740
Reenqueueing errored packet 350288 at time 9741
Reenqueueing errored packet 301572 at time 9743
Additional hops: 16201
Adding flit 368523 as NACK at time 9743
Additional hops: 16205
Adding flit 333358 as NACK at time 9743
Additional hops: 16213
Adding flit 276985 as NACK at time 9750
Reenqueueing errored packet 333358 at time 9752
Additional hops: 16220
Adding flit 336608 as NACK at time 9752
Reenqueueing errored packet 368523 at time 9754
Additional hops: 16226
Adding flit 270863 as NACK at time 9756
Additional hops: 16229
Adding flit 309858 as NACK at time 9757
Additional hops: 16232
Adding flit 329010 as NACK at time 9759
Reenqueueing errored packet 309858 at time 9764
Reenqueueing errored packet 336608 at time 9767
Reenqueueing errored packet 276985 at time 9767
Additional hops: 16239
Adding flit 351523 as NACK at time 9767
Additional hops: 16245
Adding flit 271215 as NACK at time 9770
Reenqueueing errored packet 351523 at time 9782
Reenqueueing errored packet 271215 at time 9783
Additional hops: 16250
Adding flit 331657 as NACK at time 9784
Additional hops: 16259
Adding flit 334164 as NACK at time 9789
Additional hops: 16271
Adding flit 267667 as NACK at time 9789
Reenqueueing errored packet 331657 at time 9795
Additional hops: 16278
Adding flit 352241 as NACK at time 9800
Reenqueueing errored packet 334164 at time 9808
Reenqueueing errored packet 267667 at time 9814
Additional hops: 16287
Adding flit 343113 as NACK at time 9814
Reenqueueing errored packet 352241 at time 9815
Additional hops: 16301
Adding flit 254898 as NACK at time 9816
Additional hops: 16313
Adding flit 269974 as NACK at time 9817
Additional hops: 16317
Adding flit 353377 as NACK at time 9817
Additional hops: 16325
Adding flit 323210 as NACK at time 9817
Additional hops: 16333
Adding flit 353484 as NACK at time 9822
Reenqueueing errored packet 353377 at time 9826
Additional hops: 16337
Adding flit 371515 as NACK at time 9829
Additional hops: 16344
Adding flit 323654 as NACK at time 9832
Reenqueueing errored packet 343113 at time 9833
Additional hops: 16353
Adding flit 340528 as NACK at time 9833
Reenqueueing errored packet 323210 at time 9834
Additional hops: 16356
Adding flit 323009 as NACK at time 9836
Reenqueueing errored packet 371515 at time 9838
Reenqueueing errored packet 353484 at time 9839
Reenqueueing errored packet 269974 at time 9842
Reenqueueing errored packet 254898 at time 9845
Reenqueueing errored packet 323654 at time 9847
Additional hops: 16364
Adding flit 345786 as NACK at time 9850
Reenqueueing errored packet 340528 at time 9852
Additional hops: 16367
Adding flit 346393 as NACK at time 9852
Additional hops: 16376
Adding flit 274731 as NACK at time 9855
Additional hops: 16383
Adding flit 319763 as NACK at time 9856
Reenqueueing errored packet 346393 at time 9859
Additional hops: 16393
Adding flit 266589 as NACK at time 9859
Additional hops: 16404
Adding flit 254577 as NACK at time 9859
Reenqueueing errored packet 345786 at time 9867
Additional hops: 16410
Adding flit 333609 as NACK at time 9868
Additional hops: 16416
Adding flit 321447 as NACK at time 9870
Additional hops: 16423
Adding flit 355347 as NACK at time 9870
Reenqueueing errored packet 319763 at time 9871
Reenqueueing errored packet 274731 at time 9874
Reenqueueing errored packet 266589 at time 9880
Reenqueueing errored packet 333609 at time 9881
Reenqueueing errored packet 254577 at time 9882
Reenqueueing errored packet 321447 at time 9883
Additional hops: 16429
Adding flit 320619 as NACK at time 9884
Reenqueueing errored packet 355347 at time 9885
Additional hops: 16436
Adding flit 324167 as NACK at time 9888
Additional hops: 16446
Adding flit 336979 as NACK at time 9890
Reenqueueing errored packet 320619 at time 9897
Additional hops: 16454
Adding flit 272689 as NACK at time 9901
Reenqueueing errored packet 324167 at time 9903
Additional hops: 16463
Adding flit 290744 as NACK at time 9908
Reenqueueing errored packet 336979 at time 9911
Additional hops: 16470
Adding flit 284017 as NACK at time 9911
Additional hops: 16481
Adding flit 261574 as NACK at time 9919
Reenqueueing errored packet 284017 at time 9926
Additional hops: 16487
Adding flit 357624 as NACK at time 9943
Additional hops: 16493
Adding flit 364786 as NACK at time 9947
Reenqueueing errored packet 357624 at time 9956
Additional hops: 16501
Adding flit 340329 as NACK at time 9957
Reenqueueing errored packet 364786 at time 9960
Additional hops: 16503
Adding flit 325646 as NACK at time 9960
Additional hops: 16508
Adding flit 336877 as NACK at time 9961
Additional hops: 16515
Adding flit 317046 as NACK at time 9965
Additional hops: 16519
Adding flit 376611 as NACK at time 9966
Additional hops: 16523
Adding flit 364804 as NACK at time 9966
Additional hops: 16525
Adding flit 376952 as NACK at time 9968
Additional hops: 16531
Adding flit 338281 as NACK at time 9971
Reenqueueing errored packet 336877 at time 9972
Reenqueueing errored packet 376952 at time 9973
Additional hops: 16536
Adding flit 376139 as NACK at time 9973
Reenqueueing errored packet 340329 at time 9974
Reenqueueing errored packet 364804 at time 9975
Reenqueueing errored packet 376611 at time 9975
Reenqueueing errored packet 317046 at time 9980
Additional hops: 16543
Adding flit 342356 as NACK at time 9980
Reenqueueing errored packet 376139 at time 9984
Reenqueueing errored packet 338281 at time 9984
Additional hops: 16551
Adding flit 345258 as NACK at time 9986
Additional hops: 16556
Adding flit 359616 as NACK at time 9989
Additional hops: 16564
Adding flit 322552 as NACK at time 9992
Reenqueueing errored packet 342356 at time 9995
Class 0:
Packet latency average = 683.391
	minimum = 5
	maximum = 6159
Network latency average = 679.506
	minimum = 5
	maximum = 3652
Slowest packet = 737
Flit latency average = 679.506
	minimum = 5
	maximum = 3652
Slowest flit = 241808
Fragmentation average = 0
	minimum = 0
	maximum = 0
Injected packet rate average = 0.595045
	minimum = 0.5578 (at node 41)
	maximum = 0.6192 (at node 24)
Accepted packet rate average = 0.510367
	minimum = 0.493 (at node 36)
	maximum = 0.5285 (at node 14)
Injected flit rate average = 0.595045
	minimum = 0.5578 (at node 41)
	maximum = 0.6192 (at node 24)
Accepted flit rate average= 0.510367
	minimum = 0.493 (at node 36)
	maximum = 0.5285 (at node 14)
Injected packet length average = 1
Accepted packet length average = 1
Total in-flight flits = 54253 (0 measured)
latency change    = 1
throughput change = 1
Average latency for class 0 exceeded 500 cycles. Aborting simulation.
Too many sample periods needed to converge
Simulation unstable, ending ...
Total run time 98.9204
