BEGIN Configuration File: examples/ecc_mesh88_config_0_0.750_packet_5
// $Id$

// Copyright (c) 2007-2015, Trustees of The Leland Stanford Junior University
// All rights reserved.
//
// Redistribution and use in source and binary forms, with or without
// modification, are permitted provided that the following conditions are met:
//
// Redistributions of source code must retain the above copyright notice, this
// list of conditions and the following disclaimer.
// Redistributions in binary form must reproduce the above copyright notice,
// this list of conditions and the following disclaimer in the documentation
// and/or other materials provided with the distribution.
//
// THIS SOFTWARE IS PROVIDED BY THE COPYRIGHT HOLDERS AND CONTRIBUTORS "AS IS"
// AND ANY EXPRESS OR IMPLIED WARRANTIES, INCLUDING, BUT NOT LIMITED TO, THE
// IMPLIED WARRANTIES OF MERCHANTABILITY AND FITNESS FOR A PARTICULAR PURPOSE
// ARE DISCLAIMED. IN NO EVENT SHALL THE COPYRIGHT OWNER OR CONTRIBUTORS BE
// LIABLE FOR ANY DIRECT, INDIRECT, INCIDENTAL, SPECIAL, EXEMPLARY, OR
// CONSEQUENTIAL DAMAGES (INCLUDING, BUT NOT LIMITED TO, PROCUREMENT OF
// SUBSTITUTE GOODS OR SERVICES; LOSS OF USE, DATA, OR PROFITS; OR BUSINESS
// INTERRUPTION) HOWEVER CAUSED AND ON ANY THEORY OF LIABILITY, WHETHER IN
// CONTRACT, STRICT LIABILITY, OR TORT (INCLUDING NEGLIGENCE OR OTHERWISE)
// ARISING IN ANY WAY OUT OF THE USE OF THIS SOFTWARE, EVEN IF ADVISED OF THE
// POSSIBILITY OF SUCH DAMAGE.

// Dragonfly
//




vc_buf_size = 256;


wait_for_tail_credit = 0;

//
// Router architecture
//
vc_allocator = separable_input_first; 
sw_allocator = separable_input_first;
alloc_iters  = 1;

credit_delay   = 2;
routing_delay  = 0;
vc_alloc_delay = 1;
sw_alloc_delay = 1;
st_final_delay = 1;

input_speedup     = 1;
output_speedup    = 1;
internal_speedup  = 2.0;


warmup_periods = 3;
sim_count          = 1;

sample_period  = 10000;  


routing_function = dor;
num_vcs     = 2;

priority = none;
traffic       = uniform; 

injection_rate = 0.75;
packet_size = 1;
injection_rate_uses_flits=1;

topology = mesh;

k  = 8;
n  = 2;

fer = 5;
ecc = link;
correctable = 0;

watch_out=-;
watch_file = watch.txt;

ecc = packet;

stats_out = examples/ecc_mesh88_config_0_0.750_packet_5.m;

END Configuration File: examples/ecc_mesh88_config_0_0.750_packet_5
Additional hops: 3
Adding flit 7108 as NACK at time 163
Reenqueueing errored packet 7108 at time 170
Additional hops: 9
Adding flit 6931 as NACK at time 192
Reenqueueing errored packet 6931 at time 205
Additional hops: 16
Adding flit 21050 as NACK at time 592
Reenqueueing errored packet 21050 at time 607
Additional hops: 19
Adding flit 37770 as NACK at time 898
Reenqueueing errored packet 37770 at time 905
Additional hops: 20
Adding flit 43565 as NACK at time 911
Reenqueueing errored packet 43565 at time 914
Additional hops: 28
Adding flit 55752 as NACK at time 1846
Reenqueueing errored packet 55752 at time 1863
Additional hops: 33
Adding flit 121901 as NACK at time 3056
Reenqueueing errored packet 121901 at time 3067
Additional hops: 36
Adding flit 154303 as NACK at time 3237
Reenqueueing errored packet 154303 at time 3244
Additional hops: 41
Adding flit 129448 as NACK at time 3635
Reenqueueing errored packet 129448 at time 3646
Additional hops: 43
Adding flit 151825 as NACK at time 4007
Reenqueueing errored packet 151825 at time 4012
4051 | node25 | Enqueuing flit 192022 (packet 192022) at time 3837.
4051 | traffic_manager | Finding output VC for flit 192022:
4051 | traffic_manager |   Output VC 1 is full.
4051 | traffic_manager |   Selected output VC 0.
4051 | network_0/router_3_1 | Adding VC range [0,1] at output port 0 for flit 192022 (input port 4, destination 44).
4051 | node25 | Generating lookahead routing info for flit 192022.
4051 | node25 | Injecting flit 192022 into subnet 0 at time 4051 with priority 0.
4052 | network_0/network_0_fchan_ingress25 | Beginning channel traversal for flit 192022 with delay 1.
4052 | network_0/network_0_fchan_ingress25 | Completed channel traversal for flit 192022.
4053 | network_0/router_3_1 | Received flit 192022 from channel at input 4.
4053 | network_0/router_3_1 | Adding flit 192022 to VC 0 at input 4 (state: vc_alloc, front: 153806).
Additional hops: 45
Adding flit 186268 as NACK at time 4150
Reenqueueing errored packet 186268 at time 4155
Additional hops: 50
Adding flit 173003 as NACK at time 4155
Reenqueueing errored packet 173003 at time 4166
Additional hops: 57
Adding flit 179700 as NACK at time 4243
Reenqueueing errored packet 179700 at time 4258
Additional hops: 63
Adding flit 231213 as NACK at time 5212
Reenqueueing errored packet 231213 at time 5225
5472 | network_0/router_3_1 | Using precomputed lookahead routing information for VC 0 at input 4 (front: 192022).
5472 | network_0/router_3_1/buf_4/vc_0 | Changing state from active to vc_alloc.
5472 | network_0/router_3_1 | Beginning VC allocation for VC 0 at input 4 (front: 192022).
5472 | network_0/router_3_1 |   Requesting VC 0 at output 0 (in_pri: 0, out_pri: 0).
5472 | network_0/router_3_1 |   VC 1 at output 0 is in use by VC 0 at input 1 (front flit: 177217).
5472 | network_0/router_3_1/vc_allocator | Input requests = [ 3 -> [ 0@0 ]  8 -> [ 0@0 ]  9 -> [ 0@0 ]  ], output requests = [ 0 -> [ 3@0 8@0 9@0 ]  ].
5472 | network_0/router_3_1/vc_allocator | Input grants = [ 9 -> 0  ], output grants = [ 0 -> 9  ].
5472 | network_0/router_3_1 | VC allocation failed for VC 0 at input 4.
5472 | network_0/router_3_1 | Completed VC allocation for VC 0 at input 4 (front: 192022).
5472 | network_0/router_3_1 |   No output VC allocated.
5473 | network_0/router_3_1 | Beginning VC allocation for VC 0 at input 4 (front: 192022).
5473 | network_0/router_3_1 |   VC 0 at output 0 is in use by VC 1 at input 4 (front flit: 184730).
5473 | network_0/router_3_1 |   VC 1 at output 0 is in use by VC 0 at input 1 (front flit: 177217).
5473 | network_0/router_3_1 | Completed VC allocation for VC 0 at input 4 (front: 192022).
5473 | network_0/router_3_1 |   No output VC allocated.
5473 | network_0/router_3_1 | Beginning VC allocation for VC 0 at input 4 (front: 192022).
5473 | network_0/router_3_1 |   VC 0 at output 0 is in use by VC 1 at input 4 (front flit: 184730).
5473 | network_0/router_3_1 |   Requesting VC 1 at output 0 (in_pri: 0, out_pri: 0).
5473 | network_0/router_3_1/vc_allocator | Input requests = [ 2 -> [ 1@0 ]  3 -> [ 1@0 ]  8 -> [ 1@0 ]  ], output requests = [ 1 -> [ 2@0 3@0 8@0 ]  ].
5473 | network_0/router_3_1/vc_allocator | Input grants = [ 3 -> 1  ], output grants = [ 1 -> 3  ].
5473 | network_0/router_3_1 | VC allocation failed for VC 0 at input 4.
5473 | network_0/router_3_1 | Completed VC allocation for VC 0 at input 4 (front: 192022).
5473 | network_0/router_3_1 |   No output VC allocated.
5474 | network_0/router_3_1 | Beginning VC allocation for VC 0 at input 4 (front: 192022).
5474 | network_0/router_3_1 |   VC 0 at output 0 is in use by VC 1 at input 4 (front flit: 184730).
5474 | network_0/router_3_1 |   VC 1 at output 0 is in use by VC 1 at input 1 (front flit: 181853).
5474 | network_0/router_3_1 | Completed VC allocation for VC 0 at input 4 (front: 192022).
5474 | network_0/router_3_1 |   No output VC allocated.
5474 | network_0/router_3_1 | Beginning VC allocation for VC 0 at input 4 (front: 192022).
5474 | network_0/router_3_1 |   VC 0 at output 0 is in use by VC 1 at input 4 (front flit: 184730).
5474 | network_0/router_3_1 |   VC 1 at output 0 is in use by VC 1 at input 1 (front flit: 181853).
5474 | network_0/router_3_1 | Completed VC allocation for VC 0 at input 4 (front: 192022).
5474 | network_0/router_3_1 |   No output VC allocated.
5475 | network_0/router_3_1 | Beginning VC allocation for VC 0 at input 4 (front: 192022).
5475 | network_0/router_3_1 |   VC 0 at output 0 is in use by VC 1 at input 4 (front flit: 184730).
5475 | network_0/router_3_1 |   VC 1 at output 0 is in use by VC 1 at input 1 (front flit: 181853).
5475 | network_0/router_3_1 | Completed VC allocation for VC 0 at input 4 (front: 192022).
5475 | network_0/router_3_1 |   No output VC allocated.
5475 | network_0/router_3_1 | Beginning VC allocation for VC 0 at input 4 (front: 192022).
5475 | network_0/router_3_1 |   VC 0 at output 0 is in use by VC 1 at input 4 (front flit: 184730).
5475 | network_0/router_3_1 |   VC 1 at output 0 is in use by VC 1 at input 1 (front flit: 181853).
5475 | network_0/router_3_1 | Completed VC allocation for VC 0 at input 4 (front: 192022).
5475 | network_0/router_3_1 |   No output VC allocated.
5476 | network_0/router_3_1 | Beginning VC allocation for VC 0 at input 4 (front: 192022).
5476 | network_0/router_3_1 |   VC 0 at output 0 is in use by VC 1 at input 4 (front flit: 184730).
5476 | network_0/router_3_1 |   VC 1 at output 0 is in use by VC 1 at input 1 (front flit: 181853).
5476 | network_0/router_3_1 | Completed VC allocation for VC 0 at input 4 (front: 192022).
5476 | network_0/router_3_1 |   No output VC allocated.
5476 | network_0/router_3_1 | Beginning VC allocation for VC 0 at input 4 (front: 192022).
5476 | network_0/router_3_1 |   VC 0 at output 0 is in use by VC 1 at input 4 (front flit: 184730).
5476 | network_0/router_3_1 |   VC 1 at output 0 is in use by VC 1 at input 1 (front flit: 181853).
5476 | network_0/router_3_1 | Completed VC allocation for VC 0 at input 4 (front: 192022).
5476 | network_0/router_3_1 |   No output VC allocated.
5477 | network_0/router_3_1 | Beginning VC allocation for VC 0 at input 4 (front: 192022).
5477 | network_0/router_3_1 |   VC 0 at output 0 is in use by VC 1 at input 4 (front flit: 184730).
5477 | network_0/router_3_1 |   VC 1 at output 0 is in use by VC 1 at input 1 (front flit: 181853).
5477 | network_0/router_3_1 | Completed VC allocation for VC 0 at input 4 (front: 192022).
5477 | network_0/router_3_1 |   No output VC allocated.
5477 | network_0/router_3_1 | Beginning VC allocation for VC 0 at input 4 (front: 192022).
5477 | network_0/router_3_1 |   VC 0 at output 0 is in use by VC 1 at input 4 (front flit: 184730).
5477 | network_0/router_3_1 |   Requesting VC 1 at output 0 (in_pri: 0, out_pri: 0).
5477 | network_0/router_3_1/vc_allocator | Input requests = [ 2 -> [ 1@0 ]  6 -> [ 4@0 5@0 ]  8 -> [ 1@0 ]  ], output requests = [ 1 -> [ 2@0 8@0 ]  4 -> [ 6@0 ]  5 -> [ 6@0 ]  ].
5477 | network_0/router_3_1/vc_allocator | Input grants = [ 6 -> 4  8 -> 1  ], output grants = [ 1 -> 8  4 -> 6  ].
5477 | network_0/router_3_1 | Assigning VC 1 at output 0 to VC 0 at input 4.
5477 | network_0/router_3_1 | Completed VC allocation for VC 0 at input 4 (front: 192022).
5477 | network_0/router_3_1 |   Acquiring assigned VC 1 at output 0.
5477 | network_0/router_3_1/buf_4/vc_0 | Changing state from vc_alloc to active.
5478 | network_0/router_3_1 | Beginning switch allocation for VC 0 at input 4 (front: 192022).
5478 | network_0/router_3_1 |   VC 1 at output 0 is full.
5478 | network_0/router_3_1 | Completed switch allocation for VC 0 at input 4 (front: 192022).
5478 | network_0/router_3_1 |   No output port allocated.
5478 | network_0/router_3_1 | Beginning switch allocation for VC 0 at input 4 (front: 192022).
5478 | network_0/router_3_1 |   VC 1 at output 0 is full.
5478 | network_0/router_3_1 | Completed switch allocation for VC 0 at input 4 (front: 192022).
5478 | network_0/router_3_1 |   No output port allocated.
5479 | network_0/router_3_1 | Beginning switch allocation for VC 0 at input 4 (front: 192022).
5479 | network_0/router_3_1 |   Requesting output 0.0 (non-spec, pri: 0).
5479 | network_0/router_3_1/sw_allocator | Input requests = [ 2 -> [ 3@0 ]  4 -> [ 0@0 1@0 ]  ], output requests = [ 0 -> [ 4@0 ]  1 -> [ 4@0 ]  3 -> [ 2@0 ]  ].
5479 | network_0/router_3_1/sw_allocator | Input grants = [ 2 -> 3  4 -> 1  ], output grants = [ 1 -> 4  3 -> 2  ].
5479 | network_0/router_3_1 | Switch allocation failed for VC 0 at input 4: Granted to VC 1.
5479 | network_0/router_3_1 | Completed switch allocation for VC 0 at input 4 (front: 192022).
5479 | network_0/router_3_1 |   No output port allocated.
5479 | network_0/router_3_1 | Beginning switch allocation for VC 0 at input 4 (front: 192022).
5479 | network_0/router_3_1 |   Requesting output 0.0 (non-spec, pri: 0).
5479 | network_0/router_3_1/sw_allocator | Input requests = [ 0 -> [ 3@0 ]  2 -> [ 4@0 ]  4 -> [ 0@0 ]  ], output requests = [ 0 -> [ 4@0 ]  3 -> [ 0@0 ]  4 -> [ 2@0 ]  ].
5479 | network_0/router_3_1/sw_allocator | Input grants = [ 0 -> 3  2 -> 4  4 -> 0  ], output grants = [ 0 -> 4  3 -> 0  4 -> 2  ].
5479 | network_0/router_3_1 | Assigning output 0.0 to VC 0 at input 4.0.
5479 | network_0/router_3_1 | Completed switch allocation for VC 0 at input 4 (front: 192022).
5479 | network_0/router_3_1 |   Scheduling switch connection from input 4.0 to output 0.0.
5479 | network_0/router_3_1 | Updating lookahead routing information for flit 192022.
5479 | network_0/router_3_2 | Adding VC range [0,1] at output port 0 for flit 192022 (input port 1, destination 44).
5480 | network_0/router_3_1 | Beginning crossbar traversal for flit 192022 from input 4.0 to output 0.0.
5480 | network_0/router_3_1 | Completed crossbar traversal for flit 192022 from input 4.0 to output 0.0.
5480 | network_0/router_3_1 | Buffering flit 192022 at output 0.
5480 | network_0/router_3_1 | Sending flit 192022 to channel at output 0.
5481 | network_0/network_0_fchan_100 | Beginning channel traversal for flit 192022 with delay 1.
5481 | network_0/network_0_fchan_100 | Completed channel traversal for flit 192022.
5482 | network_0/router_3_2 | Received flit 192022 from channel at input 1.
5482 | network_0/router_3_2 | Adding flit 192022 to VC 1 at input 1 (state: vc_alloc, front: 163291).
Additional hops: 67
Adding flit 188490 as NACK at time 5489
Reenqueueing errored packet 188490 at time 5498
Additional hops: 76
Adding flit 129700 as NACK at time 5503
Reenqueueing errored packet 129700 at time 5522
Additional hops: 81
Adding flit 206125 as NACK at time 5895
Additional hops: 89
Adding flit 225017 as NACK at time 5898
Reenqueueing errored packet 225017 at time 5915
Additional hops: 96
Adding flit 152401 as NACK at time 6172
Additional hops: 102
Adding flit 151706 as NACK at time 6307
Reenqueueing errored packet 151706 at time 6320
6481 | network_0/router_3_2 | Using precomputed lookahead routing information for VC 1 at input 1 (front: 192022).
6481 | network_0/router_3_2/buf_1/vc_1 | Changing state from active to vc_alloc.
6482 | network_0/router_3_2 | Beginning VC allocation for VC 1 at input 1 (front: 192022).
6482 | network_0/router_3_2 |   VC 0 at output 0 is in use by VC 0 at input 4 (front flit: 260057).
6482 | network_0/router_3_2 |   VC 1 at output 0 is in use by VC 1 at input 4 (front flit: 260468).
6482 | network_0/router_3_2 | Completed VC allocation for VC 1 at input 1 (front: 192022).
6482 | network_0/router_3_2 |   No output VC allocated.
6482 | network_0/router_3_2 | Beginning VC allocation for VC 1 at input 1 (front: 192022).
6482 | network_0/router_3_2 |   VC 0 at output 0 is in use by VC 0 at input 4 (front flit: 260057).
6482 | network_0/router_3_2 |   Requesting VC 1 at output 0 (in_pri: 0, out_pri: 0).
6482 | network_0/router_3_2/vc_allocator | Input requests = [ 2 -> [ 1@0 ]  3 -> [ 1@0 ]  6 -> [ 5@0 ]  9 -> [ 2@0 3@0 ]  ], output requests = [ 1 -> [ 2@0 3@0 ]  2 -> [ 9@0 ]  3 -> [ 9@0 ]  5 -> [ 6@0 ]  ].
6482 | network_0/router_3_2/vc_allocator | Input grants = [ 2 -> 1  6 -> 5  9 -> 2  ], output grants = [ 1 -> 2  2 -> 9  5 -> 6  ].
6482 | network_0/router_3_2 | VC allocation failed for VC 1 at input 1.
6482 | network_0/router_3_2 | Completed VC allocation for VC 1 at input 1 (front: 192022).
6482 | network_0/router_3_2 |   No output VC allocated.
6483 | network_0/router_3_2 | Beginning VC allocation for VC 1 at input 1 (front: 192022).
6483 | network_0/router_3_2 |   Requesting VC 0 at output 0 (in_pri: 0, out_pri: 0).
6483 | network_0/router_3_2 |   VC 1 at output 0 is in use by VC 0 at input 1 (front flit: 177099).
6483 | network_0/router_3_2/vc_allocator | Input requests = [ 0 -> [ 3@0 ]  1 -> [ 3@0 ]  3 -> [ 0@0 ]  4 -> [ 6@0 7@0 ]  8 -> [ 0@0 ]  ], output requests = [ 0 -> [ 3@0 8@0 ]  3 -> [ 0@0 1@0 ]  6 -> [ 4@0 ]  7 -> [ 4@0 ]  ].
6483 | network_0/router_3_2/vc_allocator | Input grants = [ 0 -> 3  3 -> 0  4 -> 6  ], output grants = [ 0 -> 3  3 -> 0  6 -> 4  ].
6483 | network_0/router_3_2 | Assigning VC 0 at output 0 to VC 1 at input 1.
6483 | network_0/router_3_2 | Completed VC allocation for VC 1 at input 1 (front: 192022).
6483 | network_0/router_3_2 |   Acquiring assigned VC 0 at output 0.
6483 | network_0/router_3_2/buf_1/vc_1 | Changing state from vc_alloc to active.
6483 | network_0/router_3_2 | Beginning switch allocation for VC 1 at input 1 (front: 192022).
6483 | network_0/router_3_2 |   VC 0 at output 0 is full.
6483 | network_0/router_3_2 | Completed switch allocation for VC 1 at input 1 (front: 192022).
6483 | network_0/router_3_2 |   No output port allocated.
6484 | network_0/router_3_2 | Beginning switch allocation for VC 1 at input 1 (front: 192022).
6484 | network_0/router_3_2 |   Requesting output 0.0 (non-spec, pri: 0).
6484 | network_0/router_3_2/sw_allocator | Input requests = [ 0 -> [ 1@0 ]  1 -> [ 0@0 ]  3 -> [ 2@0 ]  ], output requests = [ 0 -> [ 1@0 ]  1 -> [ 0@0 ]  2 -> [ 3@0 ]  ].
6484 | network_0/router_3_2/sw_allocator | Input grants = [ 0 -> 1  1 -> 0  3 -> 2  ], output grants = [ 0 -> 1  1 -> 0  2 -> 3  ].
6484 | network_0/router_3_2 | Assigning output 0.0 to VC 1 at input 1.0.
6484 | network_0/router_3_2 | Completed switch allocation for VC 1 at input 1 (front: 192022).
6484 | network_0/router_3_2 |   Scheduling switch connection from input 1.0 to output 0.0.
6484 | network_0/router_3_2 | Updating lookahead routing information for flit 192022.
6484 | network_0/router_3_3 | Adding VC range [0,1] at output port 0 for flit 192022 (input port 1, destination 44).
6484 | network_0/router_3_2 | Beginning crossbar traversal for flit 192022 from input 1.0 to output 0.0.
6484 | network_0/router_3_2 | Completed crossbar traversal for flit 192022 from input 1.0 to output 0.0.
6484 | network_0/router_3_2 | Buffering flit 192022 at output 0.
6485 | network_0/router_3_2 | Sending flit 192022 to channel at output 0.
6486 | network_0/network_0_fchan_104 | Beginning channel traversal for flit 192022 with delay 1.
6486 | network_0/network_0_fchan_104 | Completed channel traversal for flit 192022.
6487 | network_0/router_3_3 | Received flit 192022 from channel at input 1.
6487 | network_0/router_3_3 | Adding flit 192022 to VC 0 at input 1 (state: active, front: 171907).
7206 | network_0/router_3_3 | Using precomputed lookahead routing information for VC 0 at input 1 (front: 192022).
7206 | network_0/router_3_3/buf_1/vc_0 | Changing state from active to vc_alloc.
7206 | network_0/router_3_3 | Beginning VC allocation for VC 0 at input 1 (front: 192022).
7206 | network_0/router_3_3 |   VC 0 at output 0 is in use by VC 1 at input 1 (front flit: 261430).
7206 | network_0/router_3_3 |   Requesting VC 1 at output 0 (in_pri: 0, out_pri: 0).
7206 | network_0/router_3_3/vc_allocator | Input requests = [ 2 -> [ 1@0 ]  8 -> [ 1@0 ]  9 -> [ 1@0 ]  ], output requests = [ 1 -> [ 2@0 8@0 9@0 ]  ].
7206 | network_0/router_3_3/vc_allocator | Input grants = [ 8 -> 1  ], output grants = [ 1 -> 8  ].
7206 | network_0/router_3_3 | VC allocation failed for VC 0 at input 1.
7206 | network_0/router_3_3 | Completed VC allocation for VC 0 at input 1 (front: 192022).
7206 | network_0/router_3_3 |   No output VC allocated.
7207 | network_0/router_3_3 | Beginning VC allocation for VC 0 at input 1 (front: 192022).
7207 | network_0/router_3_3 |   VC 0 at output 0 is in use by VC 1 at input 1 (front flit: 261430).
7207 | network_0/router_3_3 |   VC 1 at output 0 is in use by VC 0 at input 4 (front flit: 304748).
7207 | network_0/router_3_3 | Completed VC allocation for VC 0 at input 1 (front: 192022).
7207 | network_0/router_3_3 |   No output VC allocated.
7207 | network_0/router_3_3 | Beginning VC allocation for VC 0 at input 1 (front: 192022).
7207 | network_0/router_3_3 |   VC 0 at output 0 is in use by VC 1 at input 1 (front flit: 261430).
7207 | network_0/router_3_3 |   Requesting VC 1 at output 0 (in_pri: 0, out_pri: 0).
7207 | network_0/router_3_3/vc_allocator | Input requests = [ 2 -> [ 1@0 ]  8 -> [ 1@0 ]  9 -> [ 1@0 ]  ], output requests = [ 1 -> [ 2@0 8@0 9@0 ]  ].
7207 | network_0/router_3_3/vc_allocator | Input grants = [ 9 -> 1  ], output grants = [ 1 -> 9  ].
7207 | network_0/router_3_3 | VC allocation failed for VC 0 at input 1.
7207 | network_0/router_3_3 | Completed VC allocation for VC 0 at input 1 (front: 192022).
7207 | network_0/router_3_3 |   No output VC allocated.
7208 | network_0/router_3_3 | Beginning VC allocation for VC 0 at input 1 (front: 192022).
7208 | network_0/router_3_3 |   VC 0 at output 0 is in use by VC 1 at input 1 (front flit: 261430).
7208 | network_0/router_3_3 |   VC 1 at output 0 is in use by VC 1 at input 4 (front flit: 304785).
7208 | network_0/router_3_3 | Completed VC allocation for VC 0 at input 1 (front: 192022).
7208 | network_0/router_3_3 |   No output VC allocated.
7208 | network_0/router_3_3 | Beginning VC allocation for VC 0 at input 1 (front: 192022).
7208 | network_0/router_3_3 |   Requesting VC 0 at output 0 (in_pri: 0, out_pri: 0).
7208 | network_0/router_3_3 |   VC 1 at output 0 is in use by VC 1 at input 4 (front flit: 304785).
7208 | network_0/router_3_3/vc_allocator | Input requests = [ 2 -> [ 0@0 ]  3 -> [ 0@0 ]  8 -> [ 0@0 ]  ], output requests = [ 0 -> [ 2@0 3@0 8@0 ]  ].
7208 | network_0/router_3_3/vc_allocator | Input grants = [ 8 -> 0  ], output grants = [ 0 -> 8  ].
7208 | network_0/router_3_3 | VC allocation failed for VC 0 at input 1.
7208 | network_0/router_3_3 | Completed VC allocation for VC 0 at input 1 (front: 192022).
7208 | network_0/router_3_3 |   No output VC allocated.
7209 | network_0/router_3_3 | Beginning VC allocation for VC 0 at input 1 (front: 192022).
7209 | network_0/router_3_3 |   VC 0 at output 0 is in use by VC 0 at input 4 (front flit: 304816).
7209 | network_0/router_3_3 |   VC 1 at output 0 is in use by VC 1 at input 4 (front flit: 304785).
7209 | network_0/router_3_3 | Completed VC allocation for VC 0 at input 1 (front: 192022).
7209 | network_0/router_3_3 |   No output VC allocated.
7209 | network_0/router_3_3 | Beginning VC allocation for VC 0 at input 1 (front: 192022).
7209 | network_0/router_3_3 |   VC 0 at output 0 is in use by VC 0 at input 4 (front flit: 304816).
7209 | network_0/router_3_3 |   Requesting VC 1 at output 0 (in_pri: 0, out_pri: 0).
7209 | network_0/router_3_3/vc_allocator | Input requests = [ 2 -> [ 1@0 ]  3 -> [ 1@0 ]  9 -> [ 2@0 ]  ], output requests = [ 1 -> [ 2@0 3@0 ]  2 -> [ 9@0 ]  ].
7209 | network_0/router_3_3/vc_allocator | Input grants = [ 2 -> 1  9 -> 2  ], output grants = [ 1 -> 2  2 -> 9  ].
7209 | network_0/router_3_3 | Assigning VC 1 at output 0 to VC 0 at input 1.
7209 | network_0/router_3_3 | Completed VC allocation for VC 0 at input 1 (front: 192022).
7209 | network_0/router_3_3 |   Acquiring assigned VC 1 at output 0.
7209 | network_0/router_3_3/buf_1/vc_0 | Changing state from vc_alloc to active.
7210 | network_0/router_3_3 | Beginning switch allocation for VC 0 at input 1 (front: 192022).
7210 | network_0/router_3_3 |   Requesting output 0.0 (non-spec, pri: 0).
7210 | network_0/router_3_3/sw_allocator | Input requests = [ 1 -> [ 0@0 ]  4 -> [ 1@0 ]  ], output requests = [ 0 -> [ 1@0 ]  1 -> [ 4@0 ]  ].
7210 | network_0/router_3_3/sw_allocator | Input grants = [ 1 -> 0  4 -> 1  ], output grants = [ 0 -> 1  1 -> 4  ].
7210 | network_0/router_3_3 | Assigning output 0.0 to VC 0 at input 1.0.
7210 | network_0/router_3_3 | Completed switch allocation for VC 0 at input 1 (front: 192022).
7210 | network_0/router_3_3 |   Scheduling switch connection from input 1.0 to output 0.0.
7210 | network_0/router_3_3 | Updating lookahead routing information for flit 192022.
7210 | network_0/router_3_4 | Adding VC range [0,1] at output port 2 for flit 192022 (input port 1, destination 44).
7210 | network_0/router_3_3 | Beginning crossbar traversal for flit 192022 from input 1.0 to output 0.0.
7210 | network_0/router_3_3 | Completed crossbar traversal for flit 192022 from input 1.0 to output 0.0.
7210 | network_0/router_3_3 | Buffering flit 192022 at output 0.
7713 | network_0/router_3_3 | Sending flit 192022 to channel at output 0.
7714 | network_0/network_0_fchan_108 | Beginning channel traversal for flit 192022 with delay 1.
7714 | network_0/network_0_fchan_108 | Completed channel traversal for flit 192022.
7715 | network_0/router_3_4 | Received flit 192022 from channel at input 1.
7715 | network_0/router_3_4 | Adding flit 192022 to VC 1 at input 1 (state: idle, empty).
7715 | network_0/router_3_4 | Using precomputed lookahead routing information for VC 1 at input 1 (front: 192022).
7715 | network_0/router_3_4/buf_1/vc_1 | Changing state from idle to vc_alloc.
7715 | network_0/router_3_4 | Beginning VC allocation for VC 1 at input 1 (front: 192022).
7715 | network_0/router_3_4 |   Requesting VC 0 at output 2 (in_pri: 0, out_pri: 0).
7715 | network_0/router_3_4 |   Requesting VC 1 at output 2 (in_pri: 0, out_pri: 0).
7715 | network_0/router_3_4/vc_allocator | Input requests = [ 3 -> [ 4@0 5@0 ]  4 -> [ 6@0 7@0 ]  6 -> [ 4@0 5@0 ]  ], output requests = [ 4 -> [ 3@0 6@0 ]  5 -> [ 3@0 6@0 ]  6 -> [ 4@0 ]  7 -> [ 4@0 ]  ].
7715 | network_0/router_3_4/vc_allocator | Input grants = [ 3 -> 4  4 -> 6  6 -> 5  ], output grants = [ 4 -> 3  5 -> 6  6 -> 4  ].
7715 | network_0/router_3_4 | Assigning VC 0 at output 2 to VC 1 at input 1.
7715 | network_0/router_3_4 | Completed VC allocation for VC 1 at input 1 (front: 192022).
7715 | network_0/router_3_4 |   Acquiring assigned VC 0 at output 2.
7715 | network_0/router_3_4/buf_1/vc_1 | Changing state from vc_alloc to active.
7715 | network_0/router_3_4 | Beginning switch allocation for VC 1 at input 1 (front: 192022).
7715 | network_0/router_3_4 |   Requesting output 2.0 (non-spec, pri: 0).
7715 | network_0/router_3_4/sw_allocator | Input requests = [ 1 -> [ 2@0 ]  2 -> [ 3@0 ]  3 -> [ 2@0 ]  ], output requests = [ 2 -> [ 1@0 3@0 ]  3 -> [ 2@0 ]  ].
7715 | network_0/router_3_4/sw_allocator | Input grants = [ 1 -> 2  2 -> 3  ], output grants = [ 2 -> 1  3 -> 2  ].
7715 | network_0/router_3_4 | Assigning output 2.0 to VC 1 at input 1.0.
7715 | network_0/router_3_4 | Completed switch allocation for VC 1 at input 1 (front: 192022).
7715 | network_0/router_3_4 |   Scheduling switch connection from input 1.0 to output 2.0.
7715 | network_0/router_3_4 | Updating lookahead routing information for flit 192022.
7715 | network_0/router_4_4 | Adding VC range [0,1] at output port 2 for flit 192022 (input port 3, destination 44).
7716 | network_0/router_3_4 | Beginning crossbar traversal for flit 192022 from input 1.0 to output 2.0.
7716 | network_0/router_3_4 | Completed crossbar traversal for flit 192022 from input 1.0 to output 2.0.
7716 | network_0/router_3_4 | Buffering flit 192022 at output 2.
7806 | network_0/router_3_4 | Sending flit 192022 to channel at output 2.
7807 | network_0/network_0_fchan_114 | Beginning channel traversal for flit 192022 with delay 1.
7807 | network_0/network_0_fchan_114 | Completed channel traversal for flit 192022.
7808 | network_0/router_4_4 | Received flit 192022 from channel at input 3.
7808 | network_0/router_4_4 | Adding flit 192022 to VC 0 at input 3 (state: idle, empty).
7808 | network_0/router_4_4 | Using precomputed lookahead routing information for VC 0 at input 3 (front: 192022).
7808 | network_0/router_4_4/buf_3/vc_0 | Changing state from idle to vc_alloc.
7808 | network_0/router_4_4 | Beginning VC allocation for VC 0 at input 3 (front: 192022).
7808 | network_0/router_4_4 |   Requesting VC 0 at output 2 (in_pri: 0, out_pri: 0).
7808 | network_0/router_4_4 |   VC 1 at output 2 is in use by VC 0 at input 0 (front flit: 196250).
7808 | network_0/router_4_4/vc_allocator | Input requests = [ 2 -> [ 4@0 ]  4 -> [ 8@0 9@0 ]  6 -> [ 4@0 ]  ], output requests = [ 4 -> [ 2@0 6@0 ]  8 -> [ 4@0 ]  9 -> [ 4@0 ]  ].
7808 | network_0/router_4_4/vc_allocator | Input grants = [ 2 -> 4  4 -> 8  ], output grants = [ 4 -> 2  8 -> 4  ].
7808 | network_0/router_4_4 | VC allocation failed for VC 0 at input 3.
7808 | network_0/router_4_4 | Completed VC allocation for VC 0 at input 3 (front: 192022).
7808 | network_0/router_4_4 |   No output VC allocated.
7808 | network_0/router_4_4 | Beginning VC allocation for VC 0 at input 3 (front: 192022).
7808 | network_0/router_4_4 |   VC 0 at output 2 is in use by VC 0 at input 1 (front flit: 307945).
7808 | network_0/router_4_4 |   Requesting VC 1 at output 2 (in_pri: 0, out_pri: 0).
7808 | network_0/router_4_4/vc_allocator | Input requests = [ 6 -> [ 5@0 ]  ], output requests = [ 5 -> [ 6@0 ]  ].
7808 | network_0/router_4_4/vc_allocator | Input grants = [ 6 -> 5  ], output grants = [ 5 -> 6  ].
7808 | network_0/router_4_4 | Assigning VC 1 at output 2 to VC 0 at input 3.
7808 | network_0/router_4_4 | Completed VC allocation for VC 0 at input 3 (front: 192022).
7808 | network_0/router_4_4 |   Acquiring assigned VC 1 at output 2.
7808 | network_0/router_4_4/buf_3/vc_0 | Changing state from vc_alloc to active.
7809 | network_0/router_4_4 | Beginning switch allocation for VC 0 at input 3 (front: 192022).
7809 | network_0/router_4_4 |   Requesting output 2.0 (non-spec, pri: 0).
7809 | network_0/router_4_4/sw_allocator | Input requests = [ 3 -> [ 2@0 ]  4 -> [ 1@0 ]  ], output requests = [ 1 -> [ 4@0 ]  2 -> [ 3@0 ]  ].
7809 | network_0/router_4_4/sw_allocator | Input grants = [ 3 -> 2  4 -> 1  ], output grants = [ 1 -> 4  2 -> 3  ].
7809 | network_0/router_4_4 | Assigning output 2.0 to VC 0 at input 3.0.
7809 | network_0/router_4_4 | Completed switch allocation for VC 0 at input 3 (front: 192022).
7809 | network_0/router_4_4 |   Scheduling switch connection from input 3.0 to output 2.0.
7809 | network_0/router_4_4 | Updating lookahead routing information for flit 192022.
7809 | network_0/router_5_4 | Adding VC range [0,1] at output port 4 for flit 192022 (input port 3, destination 44).
7809 | network_0/router_4_4 | Beginning crossbar traversal for flit 192022 from input 3.0 to output 2.0.
7809 | network_0/router_4_4 | Completed crossbar traversal for flit 192022 from input 3.0 to output 2.0.
7809 | network_0/router_4_4 | Buffering flit 192022 at output 2.
7815 | network_0/router_4_4 | Sending flit 192022 to channel at output 2.
7816 | network_0/network_0_fchan_146 | Beginning channel traversal for flit 192022 with delay 1.
7816 | network_0/network_0_fchan_146 | Completed channel traversal for flit 192022.
7817 | network_0/router_5_4 | Received flit 192022 from channel at input 3.
7817 | network_0/router_5_4 | Adding flit 192022 to VC 1 at input 3 (state: idle, empty).
7817 | network_0/router_5_4 | Using precomputed lookahead routing information for VC 1 at input 3 (front: 192022).
7817 | network_0/router_5_4/buf_3/vc_1 | Changing state from idle to vc_alloc.
7817 | network_0/router_5_4 | Beginning VC allocation for VC 1 at input 3 (front: 192022).
7817 | network_0/router_5_4 |   Requesting VC 0 at output 4 (in_pri: 0, out_pri: 0).
7817 | network_0/router_5_4 |   Requesting VC 1 at output 4 (in_pri: 0, out_pri: 0).
7817 | network_0/router_5_4/vc_allocator | Input requests = [ 2 -> [ 6@0 7@0 ]  4 -> [ 6@0 7@0 ]  7 -> [ 8@0 9@0 ]  9 -> [ 0@0 1@0 ]  ], output requests = [ 0 -> [ 9@0 ]  1 -> [ 9@0 ]  6 -> [ 2@0 4@0 ]  7 -> [ 2@0 4@0 ]  8 -> [ 7@0 ]  9 -> [ 7@0 ]  ].
7817 | network_0/router_5_4/vc_allocator | Input grants = [ 2 -> 6  4 -> 7  7 -> 8  9 -> 1  ], output grants = [ 1 -> 9  6 -> 2  7 -> 4  8 -> 7  ].
7817 | network_0/router_5_4 | Assigning VC 0 at output 4 to VC 1 at input 3.
7817 | network_0/router_5_4 | Completed VC allocation for VC 1 at input 3 (front: 192022).
7817 | network_0/router_5_4 |   Acquiring assigned VC 0 at output 4.
7817 | network_0/router_5_4/buf_3/vc_1 | Changing state from vc_alloc to active.
7817 | network_0/router_5_4 | Beginning switch allocation for VC 1 at input 3 (front: 192022).
7817 | network_0/router_5_4 |   Requesting output 4.0 (non-spec, pri: 0).
7817 | network_0/router_5_4/sw_allocator | Input requests = [ 1 -> [ 3@0 ]  2 -> [ 3@0 ]  3 -> [ 4@0 ]  4 -> [ 0@0 ]  ], output requests = [ 0 -> [ 4@0 ]  3 -> [ 1@0 2@0 ]  4 -> [ 3@0 ]  ].
7817 | network_0/router_5_4/sw_allocator | Input grants = [ 1 -> 3  3 -> 4  4 -> 0  ], output grants = [ 0 -> 4  3 -> 1  4 -> 3  ].
7817 | network_0/router_5_4 | Assigning output 4.0 to VC 1 at input 3.0.
7817 | network_0/router_5_4 | Completed switch allocation for VC 1 at input 3 (front: 192022).
7817 | network_0/router_5_4 |   Scheduling switch connection from input 3.0 to output 4.0.
7818 | network_0/router_5_4 | Beginning crossbar traversal for flit 192022 from input 3.0 to output 4.0.
7818 | network_0/router_5_4 | Completed crossbar traversal for flit 192022 from input 3.0 to output 4.0.
7818 | network_0/router_5_4 | Buffering flit 192022 at output 4.
7818 | network_0/router_5_4 | Sending flit 192022 to channel at output 4.
7819 | network_0/network_0_fchan_egress44 | Beginning channel traversal for flit 192022 with delay 1.
7819 | network_0/network_0_fchan_egress44 | Completed channel traversal for flit 192022.
7820 | node44 | Ejecting flit 192022 (packet 192022) from VC 0.
7820 | node44 | Injecting credit for VC 0 into subnet 0.
7820 | node44 | Retiring flit 192022 (packet 192022, src = 25, dest = 44, hops = 6, flat = 3769).
7820 | node44 | Retiring packet 192022 (plat = 3983, nlat = 3769, frag = 0, src = 25, dest = 44).
Additional hops: 113
Adding flit 163910 as NACK at time 7901
Additional hops: 126
Adding flit 172949 as NACK at time 8040
Additional hops: 135
Adding flit 320070 as NACK at time 8665
Reenqueueing errored packet 320070 at time 8684
Additional hops: 143
Adding flit 309372 as NACK at time 8709
Additional hops: 150
Adding flit 338285 as NACK at time 8915
Reenqueueing errored packet 338285 at time 8930
Additional hops: 155
Adding flit 352831 as NACK at time 8989
Reenqueueing errored packet 352831 at time 9000
Class 0:
Packet latency average = 1265.06
	minimum = 5
	maximum = 7080
Network latency average = 1203.28
	minimum = 5
	maximum = 5827
Slowest packet = 191973
Flit latency average = 1203.28
	minimum = 5
	maximum = 5827
Slowest flit = 195693
Fragmentation average = 0
	minimum = 0
	maximum = 0
Injected packet rate average = 0.615834
	minimum = 0.4628 (at node 46)
	maximum = 0.7563 (at node 11)
Accepted packet rate average = 0.508575
	minimum = 0.4883 (at node 21)
	maximum = 0.5236 (at node 7)
Injected flit rate average = 0.615834
	minimum = 0.4628 (at node 46)
	maximum = 0.7563 (at node 11)
Accepted flit rate average= 0.508575
	minimum = 0.4883 (at node 21)
	maximum = 0.5236 (at node 7)
Injected packet length average = 1
Accepted packet length average = 1
Total in-flight flits = 68677 (0 measured)
latency change    = 1
throughput change = 1
Average latency for class 0 exceeded 500 cycles. Aborting simulation.
Too many sample periods needed to converge
Simulation unstable, ending ...
Total run time 102.177
