BEGIN Configuration File: examples/ecc_mesh88_config_1_0.010_link_1
// $Id$

// Copyright (c) 2007-2015, Trustees of The Leland Stanford Junior University
// All rights reserved.
//
// Redistribution and use in source and binary forms, with or without
// modification, are permitted provided that the following conditions are met:
//
// Redistributions of source code must retain the above copyright notice, this
// list of conditions and the following disclaimer.
// Redistributions in binary form must reproduce the above copyright notice,
// this list of conditions and the following disclaimer in the documentation
// and/or other materials provided with the distribution.
//
// THIS SOFTWARE IS PROVIDED BY THE COPYRIGHT HOLDERS AND CONTRIBUTORS "AS IS"
// AND ANY EXPRESS OR IMPLIED WARRANTIES, INCLUDING, BUT NOT LIMITED TO, THE
// IMPLIED WARRANTIES OF MERCHANTABILITY AND FITNESS FOR A PARTICULAR PURPOSE
// ARE DISCLAIMED. IN NO EVENT SHALL THE COPYRIGHT OWNER OR CONTRIBUTORS BE
// LIABLE FOR ANY DIRECT, INDIRECT, INCIDENTAL, SPECIAL, EXEMPLARY, OR
// CONSEQUENTIAL DAMAGES (INCLUDING, BUT NOT LIMITED TO, PROCUREMENT OF
// SUBSTITUTE GOODS OR SERVICES; LOSS OF USE, DATA, OR PROFITS; OR BUSINESS
// INTERRUPTION) HOWEVER CAUSED AND ON ANY THEORY OF LIABILITY, WHETHER IN
// CONTRACT, STRICT LIABILITY, OR TORT (INCLUDING NEGLIGENCE OR OTHERWISE)
// ARISING IN ANY WAY OUT OF THE USE OF THIS SOFTWARE, EVEN IF ADVISED OF THE
// POSSIBILITY OF SUCH DAMAGE.

// Dragonfly
//




vc_buf_size = 256;


wait_for_tail_credit = 0;

//
// Router architecture
//
vc_allocator = separable_input_first; 
sw_allocator = separable_input_first;
alloc_iters  = 1;

credit_delay   = 2;
routing_delay  = 0;
vc_alloc_delay = 1;
sw_alloc_delay = 1;
st_final_delay = 1;

input_speedup     = 1;
output_speedup    = 1;
internal_speedup  = 2.0;


warmup_periods = 3;
sim_count          = 1;

sample_period  = 10000;  


routing_function = dor;
num_vcs     = 2;

priority = none;
traffic       = uniform; 

injection_rate = 0.01;
packet_size = 1;
injection_rate_uses_flits=1;

topology = mesh;

k  = 8;
n  = 2;

fer = 1;
ecc = link;
correctable = 1;

watch_out=-;
watch_file = watch.txt;

ecc = link;

stats_out = examples/ecc_mesh88_config_1_0.010_link_1.m;

END Configuration File: examples/ecc_mesh88_config_1_0.010_link_1
Requeued flit 24
Requeued flit 32
Requeued flit 37
Requeued flit 32
Requeued flit 74
Requeued flit 52
Requeued flit 10
Requeued flit 66
Requeued flit 36
Requeued flit 96
Requeued flit 49
Requeued flit 3
Requeued flit 79
Requeued flit 73
Requeued flit 97
Requeued flit 122
Requeued flit 96
Requeued flit 135
Requeued flit 133
Requeued flit 111
Requeued flit 151
Requeued flit 128
Requeued flit 131
Requeued flit 53
Requeued flit 220
Requeued flit 148
Requeued flit 181
Requeued flit 212
Requeued flit 108
Requeued flit 156
Requeued flit 223
Requeued flit 92
Requeued flit 118
Requeued flit 233
Requeued flit 221
Requeued flit 108
Requeued flit 201
Requeued flit 245
Requeued flit 212
Requeued flit 148
Requeued flit 242
Requeued flit 236
Requeued flit 270
Requeued flit 190
Requeued flit 301
Requeued flit 295
Requeued flit 226
Requeued flit 316
Requeued flit 336
Requeued flit 331
Requeued flit 257
Requeued flit 330
Requeued flit 268
Requeued flit 242
Requeued flit 314
Requeued flit 337
Requeued flit 368
Requeued flit 286
Requeued flit 182
Requeued flit 254
Requeued flit 276
Requeued flit 46
Requeued flit 377
Requeued flit 325
Requeued flit 312
Requeued flit 378
Requeued flit 389
Requeued flit 355
Requeued flit 428
Requeued flit 387
Requeued flit 363
Requeued flit 310
Requeued flit 460
Requeued flit 387
Requeued flit 463
Requeued flit 341
Requeued flit 321
Requeued flit 480
Requeued flit 433
Requeued flit 421
Requeued flit 476
Requeued flit 449
Requeued flit 355
Requeued flit 483
Requeued flit 473
Requeued flit 495
Requeued flit 431
Requeued flit 347
Requeued flit 473
Requeued flit 531
Requeued flit 481
Requeued flit 438
Requeued flit 321
Requeued flit 549
Requeued flit 481
Requeued flit 538
Requeued flit 394
Requeued flit 560
Requeued flit 497
Requeued flit 571
Requeued flit 367
Requeued flit 582
Requeued flit 586
Requeued flit 506
Requeued flit 593
Requeued flit 601
Requeued flit 518
Requeued flit 608
Requeued flit 581
Requeued flit 595
Requeued flit 624
Requeued flit 591
Requeued flit 530
Requeued flit 651
Requeued flit 656
Requeued flit 579
Requeued flit 675
Requeued flit 614
Requeued flit 618
Requeued flit 693
Requeued flit 671
Requeued flit 687
Requeued flit 695
Requeued flit 711
Requeued flit 701
Requeued flit 713
Requeued flit 706
Requeued flit 708
Requeued flit 710
Requeued flit 626
Requeued flit 563
Requeued flit 700
Requeued flit 730
Requeued flit 722
Requeued flit 681
Requeued flit 772
Requeued flit 694
Requeued flit 719
Requeued flit 732
Requeued flit 728
Requeued flit 777
Requeued flit 638
Requeued flit 755
Requeued flit 761
Requeued flit 758
Requeued flit 790
Requeued flit 789
Requeued flit 779
Requeued flit 799
Requeued flit 808
Requeued flit 807
Requeued flit 856
Requeued flit 863
Requeued flit 848
Requeued flit 825
Requeued flit 770
Requeued flit 804
Requeued flit 750
Requeued flit 882
Requeued flit 853
Requeued flit 922
Requeued flit 931
Requeued flit 937
Requeued flit 915
Requeued flit 833
Requeued flit 930
Requeued flit 908
Requeued flit 889
Requeued flit 986
Requeued flit 918
Requeued flit 949
Requeued flit 991
Requeued flit 964
Requeued flit 977
Requeued flit 979
Requeued flit 1022
Requeued flit 1015
Requeued flit 1017
Requeued flit 1009
Requeued flit 1041
Requeued flit 1012
Requeued flit 988
Requeued flit 1053
Requeued flit 1047
Requeued flit 1054
Requeued flit 1012
Requeued flit 1040
Requeued flit 1071
Requeued flit 1063
Requeued flit 1043
Requeued flit 899
Requeued flit 903
Requeued flit 1077
Requeued flit 1065
Requeued flit 1085
Requeued flit 1017
Requeued flit 1090
Requeued flit 1067
Requeued flit 1116
Requeued flit 1077
Requeued flit 1114
Requeued flit 1117
Requeued flit 1125
Requeued flit 1113
Requeued flit 1038
Requeued flit 1112
Requeued flit 1135
Requeued flit 1037
Requeued flit 1107
Requeued flit 1114
Requeued flit 1128
Requeued flit 1163
Requeued flit 1178
Requeued flit 1182
Requeued flit 1189
Requeued flit 1163
Requeued flit 1045
Requeued flit 1186
Requeued flit 1060
Requeued flit 1181
Requeued flit 1170
Requeued flit 1198
Requeued flit 1210
Requeued flit 1178
Requeued flit 1168
Requeued flit 1145
Requeued flit 1133
Requeued flit 1221
Requeued flit 1103
Requeued flit 1193
Requeued flit 1203
Requeued flit 1212
Requeued flit 1045
Requeued flit 1227
Requeued flit 1240
Requeued flit 1272
Requeued flit 1256
Requeued flit 1208
Requeued flit 1182
Requeued flit 1229
Requeued flit 1262
Requeued flit 1296
Requeued flit 1302
Requeued flit 1289
Requeued flit 1250
Requeued flit 1259
Requeued flit 1323
Requeued flit 1299
Requeued flit 1344
Requeued flit 1249
Requeued flit 1293
Requeued flit 1323
Requeued flit 1245
Requeued flit 1368
Requeued flit 1381
Requeued flit 1385
Requeued flit 1379
Requeued flit 1424
Requeued flit 1370
Requeued flit 1371
Requeued flit 1360
Requeued flit 1385
Requeued flit 1408
Requeued flit 1436
Requeued flit 1450
Requeued flit 1452
Requeued flit 1448
Requeued flit 1481
Requeued flit 1413
Requeued flit 1514
Requeued flit 1511
Requeued flit 1413
Requeued flit 1472
Requeued flit 1541
Requeued flit 1526
Requeued flit 1552
Requeued flit 1523
Requeued flit 1511
Requeued flit 1497
Requeued flit 1553
Requeued flit 1604
Requeued flit 1563
Requeued flit 1397
Requeued flit 1608
Requeued flit 1558
Requeued flit 1630
Requeued flit 1629
Requeued flit 1597
Requeued flit 1619
Requeued flit 1630
Requeued flit 1604
Requeued flit 1647
Requeued flit 1629
Requeued flit 1634
Requeued flit 1656
Requeued flit 1666
Requeued flit 1647
Requeued flit 1690
Requeued flit 1664
Requeued flit 1673
Requeued flit 1619
Requeued flit 1660
Requeued flit 1658
Requeued flit 1681
Requeued flit 1731
Requeued flit 1709
Requeued flit 1653
Requeued flit 1669
Requeued flit 1720
Requeued flit 1629
Requeued flit 1719
Requeued flit 1754
Requeued flit 1760
Requeued flit 1736
Requeued flit 1757
Requeued flit 1775
Requeued flit 1653
Requeued flit 1653
Requeued flit 1795
Requeued flit 1804
Requeued flit 1813
Requeued flit 1820
Requeued flit 1836
Requeued flit 1645
Requeued flit 1815
Requeued flit 1831
Requeued flit 1823
Requeued flit 1762
Requeued flit 1844
Requeued flit 1832
Requeued flit 1693
Requeued flit 1820
Requeued flit 1871
Requeued flit 1852
Requeued flit 1860
Requeued flit 1791
Requeued flit 1823
Requeued flit 1893
Requeued flit 1823
Requeued flit 1916
Requeued flit 1914
Requeued flit 1845
Requeued flit 1917
Requeued flit 1922
Requeued flit 1855
Requeued flit 1912
Requeued flit 1933
Requeued flit 1952
Requeued flit 1948
Requeued flit 1973
Requeued flit 1983
Requeued flit 1960
Requeued flit 1978
Requeued flit 1966
Requeued flit 1881
Requeued flit 1975
Requeued flit 1979
Requeued flit 1941
Requeued flit 1956
Requeued flit 1910
Requeued flit 1972
Requeued flit 2000
Requeued flit 1964
Requeued flit 1937
Requeued flit 1932
Requeued flit 1868
Requeued flit 1963
Requeued flit 1957
Requeued flit 2012
Requeued flit 1966
Requeued flit 2030
Requeued flit 1991
Requeued flit 2048
Requeued flit 2067
Requeued flit 2032
Requeued flit 2081
Requeued flit 1973
Requeued flit 2082
Requeued flit 1971
Requeued flit 2066
Requeued flit 2105
Requeued flit 2067
Requeued flit 1963
Requeued flit 1990
Requeued flit 2091
Requeued flit 2101
Requeued flit 2120
Requeued flit 2083
Requeued flit 2131
Requeued flit 2108
Requeued flit 2082
Requeued flit 2107
Requeued flit 2160
Requeued flit 2007
Requeued flit 2178
Requeued flit 2190
Requeued flit 2165
Requeued flit 2186
Requeued flit 2161
Requeued flit 2185
Requeued flit 2127
Requeued flit 2203
Requeued flit 2183
Requeued flit 2168
Requeued flit 2249
Requeued flit 2211
Requeued flit 2189
Requeued flit 2203
Requeued flit 2275
Requeued flit 2242
Requeued flit 2229
Requeued flit 2223
Requeued flit 2282
Requeued flit 2281
Requeued flit 2313
Requeued flit 2222
Requeued flit 2306
Requeued flit 2316
Requeued flit 2328
Requeued flit 2310
Requeued flit 2325
Requeued flit 2332
Requeued flit 2353
Requeued flit 2345
Requeued flit 2305
Requeued flit 2372
Requeued flit 2357
Requeued flit 2216
Requeued flit 2327
Requeued flit 2398
Requeued flit 2370
Requeued flit 2363
Requeued flit 2431
Requeued flit 2394
Requeued flit 2352
Requeued flit 2462
Requeued flit 2354
Requeued flit 2459
Requeued flit 2511
Requeued flit 2490
Requeued flit 2528
Requeued flit 2468
Requeued flit 2521
Requeued flit 2473
Requeued flit 2514
Requeued flit 2507
Requeued flit 2577
Requeued flit 2567
Requeued flit 2493
Requeued flit 2528
Requeued flit 2578
Requeued flit 2592
Requeued flit 2454
Requeued flit 2608
Requeued flit 2549
Requeued flit 2518
Requeued flit 2399
Requeued flit 2537
Requeued flit 2625
Requeued flit 2489
Requeued flit 2590
Requeued flit 2544
Requeued flit 2507
Requeued flit 2630
Requeued flit 2533
Requeued flit 2431
Requeued flit 2527
Requeued flit 2558
Requeued flit 2566
Requeued flit 2644
Requeued flit 2674
Requeued flit 2671
Requeued flit 2596
Requeued flit 2657
Requeued flit 2662
Requeued flit 2710
Requeued flit 2657
Requeued flit 2724
Requeued flit 2728
Requeued flit 2715
Requeued flit 2552
Requeued flit 2662
Requeued flit 2713
Requeued flit 2661
Requeued flit 2717
Requeued flit 2747
Requeued flit 2762
Requeued flit 2774
Requeued flit 2802
Requeued flit 2773
Requeued flit 2788
Requeued flit 2800
Requeued flit 2772
Requeued flit 2784
Requeued flit 2806
Requeued flit 2806
Requeued flit 2764
Requeued flit 2754
Requeued flit 2875
Requeued flit 2852
Requeued flit 2826
Requeued flit 2867
Requeued flit 2820
Requeued flit 2868
Requeued flit 2863
Requeued flit 2882
Requeued flit 2899
Requeued flit 2905
Requeued flit 2907
Requeued flit 2924
Requeued flit 2968
Requeued flit 2835
Requeued flit 2957
Requeued flit 2982
Requeued flit 2938
Requeued flit 3004
Requeued flit 3016
Requeued flit 2915
Requeued flit 2995
Requeued flit 3022
Requeued flit 3024
Requeued flit 2915
Requeued flit 3039
Requeued flit 2984
Requeued flit 2987
Requeued flit 3044
Requeued flit 3065
Requeued flit 3064
Requeued flit 3079
Requeued flit 3007
Requeued flit 2984
Requeued flit 3014
Requeued flit 3050
Requeued flit 3082
Requeued flit 3041
Requeued flit 3034
Requeued flit 3109
Requeued flit 2963
Requeued flit 3121
Requeued flit 3023
Requeued flit 3144
Requeued flit 3085
Requeued flit 3028
Requeued flit 3129
Requeued flit 3055
Requeued flit 3070
Requeued flit 3120
Requeued flit 3095
Requeued flit 3102
Requeued flit 3073
Requeued flit 3108
Requeued flit 3155
Requeued flit 3096
Requeued flit 3173
Requeued flit 3081
Requeued flit 3115
Requeued flit 3111
Requeued flit 3125
Requeued flit 3130
Requeued flit 3158
Requeued flit 3028
Requeued flit 3213
Requeued flit 3177
Requeued flit 3028
Requeued flit 3237
Requeued flit 3232
Requeued flit 3179
Requeued flit 3236
Requeued flit 2994
Requeued flit 3197
Requeued flit 3242
Requeued flit 3266
Requeued flit 3182
Requeued flit 3149
Requeued flit 3234
Requeued flit 3291
Requeued flit 3228
Requeued flit 3301
Requeued flit 3310
Requeued flit 3233
Requeued flit 3208
Requeued flit 3218
Requeued flit 3342
Requeued flit 3298
Requeued flit 3352
Requeued flit 3387
Requeued flit 3309
Requeued flit 3388
Requeued flit 3376
Requeued flit 3301
Requeued flit 3394
Requeued flit 3392
Requeued flit 3410
Requeued flit 3418
Requeued flit 3365
Requeued flit 3439
Requeued flit 3461
Requeued flit 3490
Requeued flit 3458
Requeued flit 3483
Requeued flit 3476
Requeued flit 3447
Requeued flit 3419
Requeued flit 3514
Requeued flit 3535
Requeued flit 3481
Requeued flit 3521
Requeued flit 3549
Requeued flit 3513
Requeued flit 3542
Requeued flit 3573
Requeued flit 3581
Requeued flit 3574
Requeued flit 3405
Requeued flit 3611
Requeued flit 3621
Requeued flit 3614
Requeued flit 3604
Requeued flit 3588
Requeued flit 3605
Requeued flit 3457
Requeued flit 3622
Requeued flit 3652
Requeued flit 3655
Requeued flit 3642
Requeued flit 3540
Requeued flit 3651
Requeued flit 3648
Requeued flit 3471
Requeued flit 3665
Requeued flit 3471
Requeued flit 3701
Requeued flit 3575
Requeued flit 3716
Requeued flit 3709
Requeued flit 3681
Requeued flit 3701
Requeued flit 3729
Requeued flit 3731
Requeued flit 3645
Requeued flit 3755
Requeued flit 3698
Requeued flit 3695
Requeued flit 3770
Requeued flit 3746
Requeued flit 3778
Requeued flit 3607
Requeued flit 3689
Requeued flit 3567
Requeued flit 3614
Requeued flit 3753
Requeued flit 3763
Requeued flit 3788
Requeued flit 3798
Requeued flit 3795
Requeued flit 3785
Requeued flit 3790
Requeued flit 3774
Requeued flit 3813
Requeued flit 3788
Requeued flit 3765
Requeued flit 3809
Requeued flit 3803
Requeued flit 3821
Requeued flit 3851
Requeued flit 3815
Requeued flit 3856
Requeued flit 3854
Requeued flit 3852
Requeued flit 3770
Requeued flit 3872
Requeued flit 3762
Requeued flit 3879
Requeued flit 3854
Requeued flit 3836
Requeued flit 3861
Requeued flit 3829
Requeued flit 3816
Requeued flit 3847
Requeued flit 3774
Requeued flit 3874
Requeued flit 3873
Requeued flit 3918
Requeued flit 3916
Requeued flit 3762
Requeued flit 3808
Requeued flit 3944
Requeued flit 3925
Requeued flit 3961
Requeued flit 3956
Requeued flit 3975
Requeued flit 3985
Requeued flit 3951
Requeued flit 3918
Requeued flit 3936
Requeued flit 3987
Requeued flit 3837
Requeued flit 3948
Requeued flit 3967
Requeued flit 4013
Requeued flit 3977
Requeued flit 3948
Requeued flit 3986
Requeued flit 4027
Requeued flit 4000
Requeued flit 4056
Requeued flit 4049
Requeued flit 4040
Requeued flit 4000
Requeued flit 3950
Requeued flit 4006
Requeued flit 4065
Requeued flit 4101
Requeued flit 4009
Requeued flit 4014
Requeued flit 4091
Requeued flit 4112
Requeued flit 4084
Requeued flit 3972
Requeued flit 4106
Requeued flit 4124
Requeued flit 4143
Requeued flit 4126
Requeued flit 4102
Requeued flit 4061
Requeued flit 4088
Requeued flit 4146
Requeued flit 4078
Requeued flit 4043
Requeued flit 4150
Requeued flit 4020
Requeued flit 4194
Requeued flit 4201
Requeued flit 4020
Requeued flit 4193
Requeued flit 4204
Requeued flit 4148
Requeued flit 4190
Requeued flit 4086
Requeued flit 4214
Requeued flit 4235
Requeued flit 4208
Requeued flit 4020
Requeued flit 4229
Requeued flit 4217
Requeued flit 4266
Requeued flit 4043
Requeued flit 4081
Requeued flit 4275
Requeued flit 4229
Requeued flit 4259
Requeued flit 4282
Requeued flit 4242
Requeued flit 4283
Requeued flit 4208
Requeued flit 4256
Requeued flit 4289
Requeued flit 4221
Requeued flit 4298
Requeued flit 4261
Requeued flit 4314
Requeued flit 4191
Requeued flit 4278
Requeued flit 4282
Requeued flit 4074
Requeued flit 4337
Requeued flit 4243
Requeued flit 4328
Requeued flit 4303
Requeued flit 4341
Requeued flit 4344
Requeued flit 4382
Requeued flit 4297
Requeued flit 4365
Requeued flit 4349
Requeued flit 4423
Requeued flit 4396
Requeued flit 4426
Requeued flit 4269
Requeued flit 4433
Requeued flit 4402
Requeued flit 4445
Requeued flit 4449
Requeued flit 4455
Requeued flit 4487
Requeued flit 4081
Requeued flit 4506
Requeued flit 4503
Requeued flit 4491
Requeued flit 4506
Requeued flit 4530
Requeued flit 4556
Requeued flit 4523
Requeued flit 4548
Requeued flit 4505
Requeued flit 4513
Requeued flit 4520
Requeued flit 4485
Requeued flit 4529
Requeued flit 4539
Requeued flit 4527
Requeued flit 4555
Requeued flit 4575
Requeued flit 4576
Requeued flit 4544
Requeued flit 4526
Requeued flit 4561
Requeued flit 4615
Requeued flit 4610
Requeued flit 4605
Requeued flit 4620
Requeued flit 4591
Requeued flit 4579
Requeued flit 4578
Requeued flit 4621
Requeued flit 4631
Requeued flit 4637
Requeued flit 4532
Requeued flit 4467
Requeued flit 4635
Requeued flit 4611
Requeued flit 4598
Requeued flit 4682
Requeued flit 4659
Requeued flit 4650
Requeued flit 4625
Requeued flit 4700
Requeued flit 4711
Requeued flit 4704
Requeued flit 4671
Requeued flit 4599
Requeued flit 4681
Requeued flit 4699
Requeued flit 4693
Requeued flit 4664
Requeued flit 4721
Requeued flit 4732
Requeued flit 4700
Requeued flit 4776
Requeued flit 4729
Requeued flit 4796
Requeued flit 4791
Requeued flit 4752
Requeued flit 4802
Requeued flit 4816
Requeued flit 4765
Requeued flit 4810
Requeued flit 4729
Requeued flit 4777
Requeued flit 4782
Requeued flit 4800
Requeued flit 4763
Requeued flit 4695
Requeued flit 4813
Requeued flit 4809
Requeued flit 4553
Requeued flit 4665
Requeued flit 4863
Requeued flit 4714
Requeued flit 4792
Requeued flit 4793
Requeued flit 4870
Requeued flit 4850
Requeued flit 4833
Requeued flit 4860
Requeued flit 4840
Requeued flit 4874
Requeued flit 4833
Requeued flit 4894
Requeued flit 4801
Requeued flit 4924
Requeued flit 4947
Requeued flit 4948
Requeued flit 4889
Requeued flit 4824
Requeued flit 4934
Requeued flit 4884
Requeued flit 4947
Requeued flit 4954
Requeued flit 4999
Requeued flit 4993
Requeued flit 4942
Requeued flit 5004
Requeued flit 4937
Requeued flit 4995
Requeued flit 4924
Requeued flit 4978
Requeued flit 5046
Requeued flit 5000
Requeued flit 5047
Requeued flit 5016
Requeued flit 5048
Requeued flit 5010
Requeued flit 5014
Requeued flit 4991
Requeued flit 5002
Requeued flit 4960
Requeued flit 5072
Requeued flit 5079
Requeued flit 5056
Requeued flit 5075
Requeued flit 5043
Requeued flit 4960
Requeued flit 5094
Requeued flit 5067
Requeued flit 5050
Requeued flit 5095
Requeued flit 5085
Requeued flit 4985
Requeued flit 5128
Requeued flit 5138
Requeued flit 5083
Requeued flit 5130
Requeued flit 5143
Requeued flit 5158
Requeued flit 5123
Requeued flit 5169
Requeued flit 5147
Requeued flit 5134
Requeued flit 5043
Requeued flit 5092
Requeued flit 5113
Requeued flit 5181
Requeued flit 5211
Requeued flit 5182
Requeued flit 5134
Requeued flit 5160
Requeued flit 5195
Requeued flit 5191
Requeued flit 5181
Requeued flit 5246
Requeued flit 5264
Requeued flit 5170
Requeued flit 5279
Requeued flit 5151
Requeued flit 5247
Requeued flit 5229
Requeued flit 5214
Requeued flit 5212
Requeued flit 5276
Requeued flit 5274
Requeued flit 5262
Requeued flit 5092
Requeued flit 5092
Requeued flit 5310
Requeued flit 5327
Requeued flit 5306
Requeued flit 5242
Requeued flit 5341
Requeued flit 5334
Requeued flit 5296
Requeued flit 5353
Requeued flit 5367
Requeued flit 5366
Requeued flit 5342
Requeued flit 5230
Requeued flit 5366
Requeued flit 5372
Requeued flit 5235
Requeued flit 5328
Requeued flit 5419
Requeued flit 5362
Requeued flit 5310
Requeued flit 5336
Requeued flit 5430
Requeued flit 5392
Requeued flit 5427
Requeued flit 5462
Requeued flit 5463
Requeued flit 5336
Requeued flit 5464
Requeued flit 5406
Requeued flit 5471
Requeued flit 5503
Requeued flit 5459
Requeued flit 5477
Requeued flit 5518
Requeued flit 5455
Requeued flit 5506
Requeued flit 5517
Requeued flit 5348
Requeued flit 5526
Requeued flit 5470
Requeued flit 5555
Requeued flit 5525
Requeued flit 5592
Requeued flit 5599
Requeued flit 5627
Requeued flit 5599
Requeued flit 5437
Requeued flit 5615
Requeued flit 5652
Requeued flit 5636
Requeued flit 5648
Requeued flit 5574
Requeued flit 5636
Requeued flit 5630
Requeued flit 5629
Requeued flit 5645
Requeued flit 5534
Requeued flit 5693
Requeued flit 5714
Requeued flit 5715
Requeued flit 5718
Requeued flit 5674
Requeued flit 5643
Requeued flit 5702
Requeued flit 5669
Requeued flit 5657
Requeued flit 5657
Requeued flit 5739
Requeued flit 5736
Requeued flit 5698
Requeued flit 5766
Requeued flit 5761
Requeued flit 5552
Requeued flit 5771
Requeued flit 5708
Requeued flit 5754
Requeued flit 5791
Requeued flit 5814
Requeued flit 5809
Requeued flit 5814
Requeued flit 5797
Requeued flit 5776
Requeued flit 5820
Requeued flit 5835
Requeued flit 5811
Requeued flit 5800
Requeued flit 5832
Requeued flit 5815
Requeued flit 5660
Requeued flit 5872
Requeued flit 5845
Requeued flit 5660
Requeued flit 5881
Requeued flit 5631
Requeued flit 5880
Requeued flit 5912
Requeued flit 5953
Requeued flit 5923
Requeued flit 5935
Requeued flit 5966
Requeued flit 5967
Requeued flit 5957
Requeued flit 5925
Requeued flit 5931
Requeued flit 5961
Requeued flit 5971
Requeued flit 5950
Requeued flit 5918
Requeued flit 5833
Requeued flit 5916
Requeued flit 5969
Requeued flit 5997
Requeued flit 5552
Requeued flit 5956
Requeued flit 5998
Requeued flit 5784
Requeued flit 5918
Requeued flit 5994
Requeued flit 6020
Requeued flit 5962
Requeued flit 6019
Requeued flit 6046
Requeued flit 6046
Requeued flit 6074
Requeued flit 5919
Requeued flit 6053
Requeued flit 6038
Requeued flit 6020
Requeued flit 6058
Requeued flit 6086
Requeued flit 6089
Requeued flit 6082
Requeued flit 6030
Requeued flit 6052
Requeued flit 6106
Requeued flit 6066
Requeued flit 6101
Requeued flit 5930
Requeued flit 6120
Requeued flit 6115
Requeued flit 6086
Requeued flit 6125
Requeued flit 5930
Requeued flit 6093
Requeued flit 6153
Requeued flit 5997
Requeued flit 6117
Requeued flit 6115
Requeued flit 6173
Requeued flit 6191
Requeued flit 6156
Requeued flit 6184
Requeued flit 6186
Requeued flit 6183
Requeued flit 6170
Requeued flit 6191
Requeued flit 6230
Requeued flit 6214
Requeued flit 6250
Requeued flit 6257
Requeued flit 6233
Requeued flit 6291
Requeued flit 6242
Requeued flit 6290
Requeued flit 6276
Class 0:
Packet latency average = 34.3248
	minimum = 5
	maximum = 717
Network latency average = 34.3248
	minimum = 5
	maximum = 717
Slowest packet = 5552
Flit latency average = 34.3248
	minimum = 5
	maximum = 717
Slowest flit = 5552
Fragmentation average = 0
	minimum = 0
	maximum = 0
Injected packet rate average = 0.00986875
	minimum = 0.0062 (at node 35)
	maximum = 0.0121 (at node 9)
Accepted packet rate average = 0.00983906
	minimum = 0.0079 (at node 52)
	maximum = 0.0121 (at node 34)
Injected flit rate average = 0.00986875
	minimum = 0.0062 (at node 35)
	maximum = 0.0121 (at node 9)
Accepted flit rate average= 0.00983906
	minimum = 0.0079 (at node 52)
	maximum = 0.0121 (at node 34)
Injected packet length average = 1
Accepted packet length average = 1
Total in-flight flits = 19 (0 measured)
latency change    = 1
throughput change = 1
Requeued flit 6262
Requeued flit 6328
Requeued flit 6257
Requeued flit 6325
Requeued flit 6310
Requeued flit 6329
Requeued flit 6307
Requeued flit 6294
Requeued flit 6332
Requeued flit 6363
Requeued flit 6376
Requeued flit 6393
Requeued flit 6374
Requeued flit 6389
Requeued flit 6219
Requeued flit 6395
Requeued flit 6356
Requeued flit 6407
Requeued flit 6420
Requeued flit 6417
Requeued flit 6388
Requeued flit 6272
Requeued flit 6388
Requeued flit 6442
Requeued flit 6408
Requeued flit 6460
Requeued flit 6453
Requeued flit 6494
Requeued flit 6480
Requeued flit 6416
Requeued flit 6495
Requeued flit 6440
Requeued flit 6489
Requeued flit 6388
Requeued flit 6510
Requeued flit 6423
Requeued flit 6485
Requeued flit 6428
Requeued flit 6531
Requeued flit 6514
Requeued flit 6479
Requeued flit 6483
Requeued flit 6529
Requeued flit 6558
Requeued flit 6536
Requeued flit 6564
Requeued flit 6522
Requeued flit 6402
Requeued flit 6550
Requeued flit 6539
Requeued flit 6598
Requeued flit 6565
Requeued flit 6588
Requeued flit 6618
Requeued flit 6620
Requeued flit 6547
Requeued flit 6617
Requeued flit 6595
Requeued flit 6482
Requeued flit 6654
Requeued flit 6639
Requeued flit 6518
Requeued flit 6640
Requeued flit 6645
Requeued flit 6662
Requeued flit 6627
Requeued flit 6622
Requeued flit 6664
Requeued flit 6618
Requeued flit 6671
Requeued flit 6527
Requeued flit 6651
Requeued flit 6680
Requeued flit 6671
Requeued flit 6691
Requeued flit 6361
Requeued flit 6673
Requeued flit 6740
Requeued flit 6738
Requeued flit 6723
Requeued flit 6689
Requeued flit 6722
Requeued flit 6701
Requeued flit 6748
Requeued flit 6721
Requeued flit 6746
Requeued flit 6736
Requeued flit 6605
Requeued flit 6727
Requeued flit 6736
Requeued flit 6729
Requeued flit 6751
Requeued flit 6757
Requeued flit 6787
Requeued flit 6775
Requeued flit 6757
Requeued flit 6706
Requeued flit 6743
Requeued flit 6806
Requeued flit 6791
Requeued flit 6773
Requeued flit 6784
Requeued flit 6750
Requeued flit 6747
Requeued flit 6838
Requeued flit 6855
Requeued flit 6830
Requeued flit 6808
Requeued flit 6814
Requeued flit 6840
Requeued flit 6845
Requeued flit 6863
Requeued flit 6845
Requeued flit 6877
Requeued flit 6849
Requeued flit 6879
Requeued flit 6933
Requeued flit 6931
Requeued flit 6884
Requeued flit 6935
Requeued flit 6953
Requeued flit 6735
Requeued flit 6971
Requeued flit 6915
Requeued flit 6962
Requeued flit 6996
Requeued flit 6941
Requeued flit 7008
Requeued flit 7011
Requeued flit 6809
Requeued flit 6959
Requeued flit 7017
Requeued flit 7029
Requeued flit 7033
Requeued flit 6923
Requeued flit 7030
Requeued flit 7024
Requeued flit 7028
Requeued flit 6933
Requeued flit 6941
Requeued flit 6970
Requeued flit 7026
Requeued flit 7027
Requeued flit 6943
Requeued flit 7059
Requeued flit 7076
Requeued flit 7081
Requeued flit 6982
Requeued flit 7073
Requeued flit 7024
Requeued flit 7123
Requeued flit 7134
Requeued flit 6866
Requeued flit 7121
Requeued flit 7023
Requeued flit 6999
Requeued flit 6983
Requeued flit 7099
Requeued flit 7155
Requeued flit 7180
Requeued flit 7166
Requeued flit 7030
Requeued flit 7150
Requeued flit 7199
Requeued flit 7182
Requeued flit 7205
Requeued flit 7187
Requeued flit 7223
Requeued flit 7217
Requeued flit 7146
Requeued flit 7167
Requeued flit 7206
Requeued flit 7163
Requeued flit 7168
Requeued flit 7212
Requeued flit 7235
Requeued flit 7229
Requeued flit 7151
Requeued flit 7249
Requeued flit 7207
Requeued flit 7274
Requeued flit 7278
Requeued flit 7302
Requeued flit 7254
Requeued flit 7302
Requeued flit 7310
Requeued flit 7289
Requeued flit 7316
Requeued flit 7247
Requeued flit 7264
Requeued flit 7235
Requeued flit 7287
Requeued flit 7349
Requeued flit 7232
Requeued flit 7331
Requeued flit 7346
Requeued flit 7303
Requeued flit 7322
Requeued flit 7346
Requeued flit 7372
Requeued flit 7360
Requeued flit 7394
Requeued flit 7386
Requeued flit 7413
Requeued flit 7393
Requeued flit 7330
Requeued flit 7345
Requeued flit 7251
Requeued flit 7377
Requeued flit 7370
Requeued flit 7421
Requeued flit 7420
Requeued flit 7423
Requeued flit 7440
Requeued flit 7334
Requeued flit 7456
Requeued flit 7428
Requeued flit 7454
Requeued flit 7345
Requeued flit 7456
Requeued flit 7447
Requeued flit 7488
Requeued flit 7432
Requeued flit 7281
Requeued flit 7476
Requeued flit 7495
Requeued flit 7482
Requeued flit 7503
Requeued flit 7520
Requeued flit 7503
Requeued flit 7534
Requeued flit 7531
Requeued flit 7550
Requeued flit 7487
Requeued flit 7545
Requeued flit 7580
Requeued flit 7530
Requeued flit 7556
Requeued flit 7480
Requeued flit 7596
Requeued flit 7600
Requeued flit 7573
Requeued flit 7553
Requeued flit 7558
Requeued flit 7631
Requeued flit 7566
Requeued flit 7656
Requeued flit 7670
Requeued flit 7496
Requeued flit 7658
Requeued flit 7685
Requeued flit 7683
Requeued flit 7639
Requeued flit 7629
Requeued flit 7638
Requeued flit 7726
Requeued flit 7720
Requeued flit 7684
Requeued flit 7687
Requeued flit 7749
Requeued flit 7758
Requeued flit 7751
Requeued flit 7730
Requeued flit 7781
Requeued flit 7790
Requeued flit 7757
Requeued flit 7773
Requeued flit 7781
Requeued flit 7797
Requeued flit 7804
Requeued flit 7716
Requeued flit 7617
Requeued flit 7823
Requeued flit 7688
Requeued flit 7820
Requeued flit 7808
Requeued flit 7829
Requeued flit 7857
Requeued flit 7846
Requeued flit 7860
Requeued flit 7723
Requeued flit 7863
Requeued flit 7841
Requeued flit 7755
Requeued flit 7854
Requeued flit 7876
Requeued flit 7923
Requeued flit 7776
Requeued flit 7890
Requeued flit 7911
Requeued flit 7881
Requeued flit 7903
Requeued flit 7945
Requeued flit 7922
Requeued flit 7901
Requeued flit 7924
Requeued flit 7928
Requeued flit 7876
Requeued flit 7927
Requeued flit 8000
Requeued flit 7937
Requeued flit 7991
Requeued flit 7969
Requeued flit 8017
Requeued flit 8028
Requeued flit 8031
Requeued flit 8060
Requeued flit 8053
Requeued flit 8040
Requeued flit 7998
Requeued flit 8002
Requeued flit 8072
Requeued flit 8034
Requeued flit 8023
Requeued flit 8074
Requeued flit 8016
Requeued flit 7960
Requeued flit 8061
Requeued flit 8019
Requeued flit 8087
Requeued flit 7913
Requeued flit 8107
Requeued flit 8090
Requeued flit 8110
Requeued flit 8055
Requeued flit 8113
Requeued flit 8054
Requeued flit 8075
Requeued flit 8071
Requeued flit 8120
Requeued flit 8117
Requeued flit 8123
Requeued flit 8128
Requeued flit 8114
Requeued flit 8132
Requeued flit 8159
Requeued flit 8137
Requeued flit 8145
Requeued flit 8177
Requeued flit 8160
Requeued flit 8189
Requeued flit 8150
Requeued flit 8075
Requeued flit 8204
Requeued flit 8126
Requeued flit 8137
Requeued flit 8160
Requeued flit 8172
Requeued flit 8212
Requeued flit 8238
Requeued flit 8214
Requeued flit 8237
Requeued flit 8220
Requeued flit 8216
Requeued flit 8258
Requeued flit 8264
Requeued flit 8213
Requeued flit 8283
Requeued flit 8276
Requeued flit 8253
Requeued flit 8285
Requeued flit 7870
Requeued flit 8317
Requeued flit 8253
Requeued flit 8294
Requeued flit 8258
Requeued flit 8338
Requeued flit 8327
Requeued flit 8354
Requeued flit 8349
Requeued flit 8339
Requeued flit 8347
Requeued flit 8374
Requeued flit 8351
Requeued flit 8376
Requeued flit 8372
Requeued flit 8341
Requeued flit 8357
Requeued flit 8405
Requeued flit 8411
Requeued flit 8422
Requeued flit 8355
Requeued flit 8357
Requeued flit 8400
Requeued flit 8334
Requeued flit 8429
Requeued flit 8460
Requeued flit 8406
Requeued flit 8457
Requeued flit 8334
Requeued flit 8490
Requeued flit 8450
Requeued flit 8485
Requeued flit 8406
Requeued flit 8429
Requeued flit 8456
Requeued flit 8486
Requeued flit 8523
Requeued flit 8538
Requeued flit 8548
Requeued flit 8544
Requeued flit 8429
Requeued flit 8480
Requeued flit 8554
Requeued flit 8498
Requeued flit 8571
Requeued flit 8479
Requeued flit 8577
Requeued flit 8585
Requeued flit 8582
Requeued flit 8568
Requeued flit 8561
Requeued flit 8581
Requeued flit 8543
Requeued flit 8551
Requeued flit 8587
Requeued flit 8607
Requeued flit 8569
Requeued flit 8607
Requeued flit 8611
Requeued flit 8603
Requeued flit 8594
Requeued flit 8573
Requeued flit 8551
Requeued flit 8652
Requeued flit 8688
Requeued flit 8681
Requeued flit 8654
Requeued flit 8691
Requeued flit 8600
Requeued flit 8721
Requeued flit 8659
Requeued flit 8733
Requeued flit 8698
Requeued flit 8753
Requeued flit 8746
Requeued flit 8741
Requeued flit 8712
Requeued flit 8777
Requeued flit 8767
Requeued flit 8725
Requeued flit 8803
Requeued flit 8697
Requeued flit 8767
Requeued flit 8807
Requeued flit 8787
Requeued flit 8760
Requeued flit 8766
Requeued flit 8829
Requeued flit 8832
Requeued flit 8727
Requeued flit 8646
Requeued flit 8865
Requeued flit 8841
Requeued flit 8877
Requeued flit 8887
Requeued flit 8863
Requeued flit 8900
Requeued flit 8848
Requeued flit 8906
Requeued flit 8898
Requeued flit 8835
Requeued flit 8853
Requeued flit 8833
Requeued flit 8897
Requeued flit 8917
Requeued flit 8811
Requeued flit 8924
Requeued flit 8917
Requeued flit 8936
Requeued flit 8911
Requeued flit 8924
Requeued flit 8854
Requeued flit 8927
Requeued flit 8820
Requeued flit 8885
Requeued flit 8956
Requeued flit 8849
Requeued flit 8929
Requeued flit 8964
Requeued flit 8935
Requeued flit 8821
Requeued flit 8977
Requeued flit 8983
Requeued flit 8932
Requeued flit 8993
Requeued flit 9004
Requeued flit 8783
Requeued flit 8922
Requeued flit 8956
Requeued flit 8799
Requeued flit 8884
Requeued flit 8950
Requeued flit 8966
Requeued flit 9026
Requeued flit 8802
Requeued flit 8995
Requeued flit 9046
Requeued flit 9030
Requeued flit 8982
Requeued flit 8966
Requeued flit 9014
Requeued flit 9046
Requeued flit 9064
Requeued flit 9016
Requeued flit 9072
Requeued flit 9074
Requeued flit 9120
Requeued flit 9122
Requeued flit 9121
Requeued flit 9104
Requeued flit 9140
Requeued flit 9139
Requeued flit 9095
Requeued flit 9150
Requeued flit 9145
Requeued flit 9154
Requeued flit 9165
Requeued flit 9172
Requeued flit 9181
Requeued flit 9157
Requeued flit 9189
Requeued flit 9186
Requeued flit 9155
Requeued flit 9153
Requeued flit 9200
Requeued flit 9178
Requeued flit 9205
Requeued flit 9155
Requeued flit 9166
Requeued flit 9210
Requeued flit 9212
Requeued flit 9207
Requeued flit 9202
Requeued flit 9226
Requeued flit 9211
Requeued flit 9164
Requeued flit 9157
Requeued flit 9234
Requeued flit 9134
Requeued flit 9257
Requeued flit 9269
Requeued flit 9129
Requeued flit 9158
Requeued flit 9274
Requeued flit 9282
Requeued flit 9284
Requeued flit 9288
Requeued flit 9283
Requeued flit 9250
Requeued flit 9299
Requeued flit 9314
Requeued flit 9305
Requeued flit 9340
Requeued flit 9346
Requeued flit 9377
Requeued flit 9381
Requeued flit 9380
Requeued flit 9220
Requeued flit 9380
Requeued flit 9367
Requeued flit 9412
Requeued flit 9289
Requeued flit 9428
Requeued flit 9397
Requeued flit 9391
Requeued flit 9440
Requeued flit 9418
Requeued flit 9425
Requeued flit 9418
Requeued flit 9474
Requeued flit 9475
Requeued flit 9448
Requeued flit 9442
Requeued flit 9485
Requeued flit 9494
Requeued flit 9467
Requeued flit 9512
Requeued flit 9514
Requeued flit 9369
Requeued flit 9474
Requeued flit 9399
Requeued flit 9526
Requeued flit 9474
Requeued flit 9511
Requeued flit 9504
Requeued flit 9542
Requeued flit 9524
Requeued flit 9549
Requeued flit 9518
Requeued flit 9530
Requeued flit 9538
Requeued flit 9532
Requeued flit 9477
Requeued flit 9580
Requeued flit 9568
Requeued flit 9556
Requeued flit 9564
Requeued flit 9553
Requeued flit 9566
Requeued flit 9509
Requeued flit 9591
Requeued flit 9399
Requeued flit 9619
Requeued flit 9592
Requeued flit 9416
Requeued flit 9587
Requeued flit 9632
Requeued flit 9633
Requeued flit 9640
Requeued flit 9645
Requeued flit 9620
Requeued flit 9555
Requeued flit 9608
Requeued flit 9619
Requeued flit 9686
Requeued flit 9692
Requeued flit 9695
Requeued flit 9691
Requeued flit 9679
Requeued flit 9649
Requeued flit 9696
Requeued flit 9674
Requeued flit 9701
Requeued flit 9693
Requeued flit 9668
Requeued flit 9699
Requeued flit 9594
Requeued flit 9666
Requeued flit 9399
Requeued flit 9738
Requeued flit 9734
Requeued flit 9731
Requeued flit 9702
Requeued flit 9680
Requeued flit 9745
Requeued flit 9661
Requeued flit 9436
Requeued flit 9781
Requeued flit 9666
Requeued flit 9779
Requeued flit 9785
Requeued flit 9736
Requeued flit 9801
Requeued flit 9772
Requeued flit 9762
Requeued flit 9744
Requeued flit 9706
Requeued flit 9811
Requeued flit 9668
Requeued flit 9783
Requeued flit 9816
Requeued flit 9810
Requeued flit 9689
Requeued flit 9726
Requeued flit 9832
Requeued flit 9829
Requeued flit 9788
Requeued flit 9818
Requeued flit 9774
Requeued flit 9794
Requeued flit 9835
Requeued flit 9765
Requeued flit 9749
Requeued flit 9839
Requeued flit 9864
Requeued flit 9823
Requeued flit 9783
Requeued flit 9849
Requeued flit 9874
Requeued flit 9860
Requeued flit 9753
Requeued flit 9850
Requeued flit 9880
Requeued flit 9850
Requeued flit 9904
Requeued flit 9905
Requeued flit 9783
Requeued flit 9919
Requeued flit 9915
Requeued flit 9882
Requeued flit 9960
Requeued flit 9914
Requeued flit 9975
Requeued flit 9961
Requeued flit 9979
Requeued flit 9903
Requeued flit 9965
Requeued flit 9795
Requeued flit 9953
Requeued flit 9992
Requeued flit 9849
Requeued flit 10003
Requeued flit 9994
Requeued flit 9989
Requeued flit 10013
Requeued flit 10026
Requeued flit 9993
Requeued flit 10033
Requeued flit 10024
Requeued flit 9983
Requeued flit 10054
Requeued flit 10059
Requeued flit 10074
Requeued flit 10085
Requeued flit 10071
Requeued flit 10100
Requeued flit 9956
Requeued flit 10077
Requeued flit 10119
Requeued flit 9939
Requeued flit 10124
Requeued flit 10129
Requeued flit 9792
Requeued flit 10155
Requeued flit 10145
Requeued flit 10137
Requeued flit 10140
Requeued flit 10079
Requeued flit 10142
Requeued flit 10146
Requeued flit 10147
Requeued flit 10168
Requeued flit 10201
Requeued flit 10216
Requeued flit 10221
Requeued flit 10130
Requeued flit 10187
Requeued flit 10115
Requeued flit 10248
Requeued flit 9910
Requeued flit 10122
Requeued flit 10191
Requeued flit 10070
Requeued flit 10175
Requeued flit 10193
Requeued flit 10249
Requeued flit 10269
Requeued flit 10282
Requeued flit 10295
Requeued flit 10310
Requeued flit 10306
Requeued flit 10333
Requeued flit 10322
Requeued flit 10298
Requeued flit 10357
Requeued flit 10359
Requeued flit 10332
Requeued flit 10380
Requeued flit 10335
Requeued flit 10165
Requeued flit 10379
Requeued flit 10399
Requeued flit 10366
Requeued flit 10304
Requeued flit 10398
Requeued flit 10268
Requeued flit 10423
Requeued flit 10431
Requeued flit 10432
Requeued flit 10380
Requeued flit 10406
Requeued flit 10365
Requeued flit 10438
Requeued flit 10358
Requeued flit 10477
Requeued flit 10441
Requeued flit 10381
Requeued flit 10433
Requeued flit 10453
Requeued flit 10485
Requeued flit 10479
Requeued flit 10474
Requeued flit 10418
Requeued flit 10504
Requeued flit 10460
Requeued flit 10355
Requeued flit 10352
Requeued flit 10506
Requeued flit 10462
Requeued flit 10459
Requeued flit 10504
Requeued flit 10500
Requeued flit 10516
Requeued flit 10527
Requeued flit 10533
Requeued flit 10536
Requeued flit 10515
Requeued flit 10537
Requeued flit 10503
Requeued flit 10469
Requeued flit 10551
Requeued flit 10599
Requeued flit 10541
Requeued flit 10577
Requeued flit 10578
Requeued flit 10606
Requeued flit 10575
Requeued flit 10558
Requeued flit 10638
Requeued flit 10612
Requeued flit 10645
Requeued flit 10643
Requeued flit 10535
Requeued flit 10600
Requeued flit 10639
Requeued flit 10575
Requeued flit 10657
Requeued flit 10671
Requeued flit 10521
Requeued flit 10574
Requeued flit 10691
Requeued flit 10683
Requeued flit 10624
Requeued flit 10682
Requeued flit 10615
Requeued flit 10704
Requeued flit 10710
Requeued flit 10718
Requeued flit 10671
Requeued flit 10713
Requeued flit 10712
Requeued flit 10724
Requeued flit 10748
Requeued flit 10743
Requeued flit 10657
Requeued flit 10787
Requeued flit 10788
Requeued flit 10706
Requeued flit 10779
Requeued flit 10768
Requeued flit 10823
Requeued flit 10750
Requeued flit 10714
Requeued flit 10769
Requeued flit 10754
Requeued flit 10797
Requeued flit 10800
Requeued flit 10845
Requeued flit 10849
Requeued flit 10768
Requeued flit 10815
Requeued flit 10752
Requeued flit 10483
Requeued flit 10598
Requeued flit 10845
Requeued flit 10852
Requeued flit 10869
Requeued flit 10819
Requeued flit 10821
Requeued flit 10833
Requeued flit 10899
Requeued flit 10896
Requeued flit 10850
Requeued flit 10884
Requeued flit 10869
Requeued flit 10873
Requeued flit 10831
Requeued flit 10897
Requeued flit 10932
Requeued flit 10904
Requeued flit 10938
Requeued flit 10950
Requeued flit 10808
Requeued flit 10868
Requeued flit 10861
Requeued flit 10954
Requeued flit 10865
Requeued flit 10909
Requeued flit 10946
Requeued flit 10945
Requeued flit 10964
Requeued flit 10962
Requeued flit 10998
Requeued flit 10973
Requeued flit 11013
Requeued flit 10971
Requeued flit 11024
Requeued flit 10886
Requeued flit 11016
Requeued flit 11051
Requeued flit 10975
Requeued flit 11044
Requeued flit 11060
Requeued flit 11021
Requeued flit 11042
Requeued flit 10966
Requeued flit 11051
Requeued flit 11070
Requeued flit 11062
Requeued flit 11060
Requeued flit 10898
Requeued flit 11000
Requeued flit 11017
Requeued flit 11085
Requeued flit 11087
Requeued flit 10971
Requeued flit 10848
Requeued flit 10972
Requeued flit 11098
Requeued flit 11009
Requeued flit 11101
Requeued flit 11015
Requeued flit 11122
Requeued flit 11128
Requeued flit 10748
Requeued flit 11157
Requeued flit 11127
Requeued flit 11132
Requeued flit 11187
Requeued flit 11160
Requeued flit 11146
Requeued flit 11117
Requeued flit 11212
Requeued flit 11211
Requeued flit 11032
Requeued flit 11166
Requeued flit 11222
Requeued flit 11169
Requeued flit 11208
Requeued flit 11241
Requeued flit 11232
Requeued flit 11219
Requeued flit 11140
Requeued flit 11233
Requeued flit 11245
Requeued flit 11284
Requeued flit 11283
Requeued flit 11289
Requeued flit 11258
Requeued flit 11296
Requeued flit 11314
Requeued flit 11313
Requeued flit 11326
Requeued flit 11340
Requeued flit 11313
Requeued flit 11331
Requeued flit 11353
Requeued flit 11381
Requeued flit 11164
Requeued flit 11398
Requeued flit 11388
Requeued flit 11417
Requeued flit 11351
Requeued flit 11303
Requeued flit 11438
Requeued flit 11437
Requeued flit 11449
Requeued flit 11406
Requeued flit 11452
Requeued flit 11370
Requeued flit 11463
Requeued flit 11446
Requeued flit 11455
Requeued flit 11461
Requeued flit 11408
Requeued flit 11485
Requeued flit 11499
Requeued flit 11483
Requeued flit 11360
Requeued flit 11466
Requeued flit 11497
Requeued flit 11483
Requeued flit 11538
Requeued flit 11510
Requeued flit 11491
Requeued flit 11477
Requeued flit 11483
Requeued flit 11521
Requeued flit 11530
Requeued flit 11499
Requeued flit 11466
Requeued flit 11482
Requeued flit 11564
Requeued flit 11532
Requeued flit 11588
Requeued flit 11459
Requeued flit 11525
Requeued flit 11601
Requeued flit 11594
Requeued flit 11516
Requeued flit 11603
Requeued flit 11665
Requeued flit 11657
Requeued flit 11614
Requeued flit 11650
Requeued flit 11459
Requeued flit 11569
Requeued flit 11660
Requeued flit 11659
Requeued flit 11628
Requeued flit 11636
Requeued flit 11559
Requeued flit 11601
Requeued flit 11674
Requeued flit 11535
Requeued flit 11624
Requeued flit 11662
Requeued flit 11649
Requeued flit 11670
Requeued flit 11694
Requeued flit 11669
Requeued flit 11693
Requeued flit 11690
Requeued flit 11727
Requeued flit 11576
Requeued flit 11677
Requeued flit 11649
Requeued flit 11738
Requeued flit 11731
Requeued flit 11673
Requeued flit 11764
Requeued flit 11756
Requeued flit 11586
Requeued flit 11683
Requeued flit 11760
Requeued flit 11761
Requeued flit 11732
Requeued flit 11754
Requeued flit 11719
Requeued flit 11622
Requeued flit 11784
Requeued flit 11809
Requeued flit 11732
Requeued flit 11835
Requeued flit 11800
Requeued flit 11807
Requeued flit 11830
Requeued flit 11852
Requeued flit 11780
Requeued flit 11845
Requeued flit 11775
Requeued flit 11783
Requeued flit 11857
Requeued flit 11868
Requeued flit 11884
Requeued flit 11785
Requeued flit 11903
Requeued flit 11896
Requeued flit 11885
Requeued flit 11889
Requeued flit 11894
Requeued flit 11720
Requeued flit 11881
Requeued flit 11844
Requeued flit 11922
Requeued flit 11886
Requeued flit 11864
Requeued flit 11925
Requeued flit 11966
Requeued flit 11918
Requeued flit 11940
Requeued flit 11945
Requeued flit 11970
Requeued flit 11859
Requeued flit 11991
Requeued flit 12016
Requeued flit 11962
Requeued flit 11921
Requeued flit 12007
Requeued flit 12025
Requeued flit 12001
Requeued flit 12023
Requeued flit 11977
Requeued flit 12062
Requeued flit 12047
Requeued flit 12056
Requeued flit 12081
Requeued flit 12085
Requeued flit 12094
Requeued flit 12107
Requeued flit 12076
Requeued flit 11997
Requeued flit 12113
Requeued flit 12061
Requeued flit 12127
Requeued flit 12105
Requeued flit 12137
Requeued flit 12120
Requeued flit 12116
Requeued flit 12097
Requeued flit 12187
Requeued flit 12146
Requeued flit 12172
Requeued flit 12192
Requeued flit 12184
Requeued flit 12213
Requeued flit 12184
Requeued flit 12182
Requeued flit 12219
Requeued flit 12176
Requeued flit 12161
Requeued flit 12223
Requeued flit 12231
Requeued flit 12242
Requeued flit 12243
Requeued flit 12161
Requeued flit 12230
Requeued flit 12261
Requeued flit 12235
Requeued flit 12229
Requeued flit 12251
Requeued flit 12181
Requeued flit 12299
Requeued flit 12287
Requeued flit 12229
Requeued flit 12301
Requeued flit 12307
Requeued flit 12208
Requeued flit 12257
Requeued flit 12240
Requeued flit 12341
Requeued flit 12312
Requeued flit 12335
Requeued flit 12316
Requeued flit 12356
Requeued flit 12274
Requeued flit 12330
Requeued flit 12333
Requeued flit 12366
Requeued flit 12339
Requeued flit 12397
Requeued flit 12294
Requeued flit 12420
Requeued flit 12322
Requeued flit 12439
Requeued flit 12409
Requeued flit 12424
Requeued flit 12447
Requeued flit 12449
Requeued flit 12413
Requeued flit 12462
Requeued flit 12445
Requeued flit 12388
Requeued flit 12488
Requeued flit 12351
Requeued flit 12322
Requeued flit 12408
Requeued flit 12498
Requeued flit 12377
Requeued flit 12517
Requeued flit 12470
Requeued flit 12525
Requeued flit 12524
Requeued flit 12526
Requeued flit 12545
Requeued flit 12470
Requeued flit 12546
Requeued flit 12571
Requeued flit 12569
Requeued flit 12531
Requeued flit 12534
Requeued flit 12470
Requeued flit 12543
Requeued flit 12488
Requeued flit 12609
Requeued flit 12580
Requeued flit 12601
Requeued flit 12587
Requeued flit 12605
Requeued flit 12607
Requeued flit 12558
Requeued flit 12623
Requeued flit 12572
Requeued flit 12597
Requeued flit 12488
Requeued flit 12581
Requeued flit 12576
Requeued flit 12649
Requeued flit 12652
Requeued flit 12674
Requeued flit 12514
Requeued flit 12533
Requeued flit 12700
Requeued flit 12635
Requeued flit 12694
Class 0:
Packet latency average = 34.4934
	minimum = 5
	maximum = 773
Network latency average = 34.4934
	minimum = 5
	maximum = 773
Slowest packet = 7870
Flit latency average = 34.4934
	minimum = 5
	maximum = 773
Slowest flit = 7870
Fragmentation average = 0
	minimum = 0
	maximum = 0
Injected packet rate average = 0.00995156
	minimum = 0.0081 (at node 35)
	maximum = 0.01125 (at node 59)
Accepted packet rate average = 0.00994062
	minimum = 0.00825 (at node 36)
	maximum = 0.0113 (at node 14)
Injected flit rate average = 0.00995156
	minimum = 0.0081 (at node 35)
	maximum = 0.01125 (at node 59)
Accepted flit rate average= 0.00994062
	minimum = 0.00825 (at node 36)
	maximum = 0.0113 (at node 14)
Injected packet length average = 1
Accepted packet length average = 1
Total in-flight flits = 14 (0 measured)
latency change    = 0.00488907
throughput change = 0.0102169
Requeued flit 12707
Requeued flit 12727
Requeued flit 12671
Requeued flit 12731
Requeued flit 12735
Requeued flit 12756
Requeued flit 12764
Requeued flit 12708
Requeued flit 12689
Requeued flit 12782
Requeued flit 12773
Requeued flit 12606
Requeued flit 12790
Requeued flit 12754
Requeued flit 12782
Requeued flit 12823
Requeued flit 12843
Requeued flit 12808
Requeued flit 12825
Requeued flit 12789
Requeued flit 12811
Requeued flit 12852
Requeued flit 12855
Requeued flit 12799
Requeued flit 12838
Requeued flit 12754
Requeued flit 12864
Requeued flit 12857
Requeued flit 12779
Requeued flit 12782
Requeued flit 12881
Requeued flit 12870
Requeued flit 12900
Requeued flit 12801
Requeued flit 12888
Requeued flit 12910
Requeued flit 12920
Requeued flit 12940
Requeued flit 12947
Requeued flit 12851
Requeued flit 12937
Requeued flit 12902
Requeued flit 12956
Requeued flit 12957
Requeued flit 12955
Requeued flit 12975
Requeued flit 12975
Requeued flit 13001
Requeued flit 12915
Requeued flit 13022
Requeued flit 13023
Requeued flit 13007
Requeued flit 13018
Requeued flit 13044
Requeued flit 13032
Requeued flit 13049
Requeued flit 12994
Requeued flit 12985
Requeued flit 13087
Requeued flit 13109
Requeued flit 13085
Requeued flit 13119
Requeued flit 13128
Requeued flit 13062
Requeued flit 13125
Requeued flit 13149
Requeued flit 13091
Requeued flit 13094
Requeued flit 13170
Requeued flit 13110
Requeued flit 13025
Requeued flit 13103
Requeued flit 13188
Requeued flit 13134
Requeued flit 13180
Requeued flit 13119
Requeued flit 13219
Requeued flit 13199
Requeued flit 13191
Requeued flit 13177
Requeued flit 13246
Requeued flit 13234
Requeued flit 13202
Requeued flit 13248
Requeued flit 13228
Requeued flit 13241
Requeued flit 13229
Requeued flit 13227
Requeued flit 13255
Requeued flit 13273
Requeued flit 13177
Requeued flit 13273
Requeued flit 13231
Requeued flit 13315
Requeued flit 13318
Requeued flit 13272
Requeued flit 13299
Requeued flit 13081
Requeued flit 13294
Requeued flit 13337
Requeued flit 13361
Requeued flit 13126
Requeued flit 13366
Requeued flit 13362
Requeued flit 13298
Requeued flit 13288
Requeued flit 13330
Requeued flit 13341
Requeued flit 13346
Requeued flit 13278
Requeued flit 13364
Requeued flit 13385
Requeued flit 13342
Requeued flit 13334
Requeued flit 13379
Requeued flit 13379
Requeued flit 13425
Requeued flit 13403
Requeued flit 13439
Requeued flit 13455
Requeued flit 13455
Requeued flit 13465
Requeued flit 13446
Requeued flit 13472
Requeued flit 13430
Requeued flit 13402
Requeued flit 13395
Requeued flit 13517
Requeued flit 13534
Requeued flit 13531
Requeued flit 13473
Requeued flit 13528
Requeued flit 13488
Requeued flit 13540
Requeued flit 13524
Requeued flit 13569
Requeued flit 13473
Requeued flit 13514
Requeued flit 13507
Requeued flit 13554
Requeued flit 13609
Requeued flit 13528
Requeued flit 13593
Requeued flit 13595
Requeued flit 13558
Requeued flit 13590
Requeued flit 13592
Requeued flit 13559
Requeued flit 13622
Requeued flit 13632
Requeued flit 13600
Requeued flit 13612
Requeued flit 13633
Requeued flit 13675
Requeued flit 13681
Requeued flit 13671
Requeued flit 13640
Requeued flit 13672
Requeued flit 13650
Requeued flit 13686
Requeued flit 13650
Requeued flit 13696
Requeued flit 13588
Requeued flit 13648
Requeued flit 13690
Requeued flit 13695
Requeued flit 13687
Requeued flit 13702
Requeued flit 13642
Requeued flit 13679
Requeued flit 13703
Requeued flit 13594
Requeued flit 13701
Requeued flit 13762
Requeued flit 13528
Requeued flit 13776
Requeued flit 13734
Requeued flit 13768
Requeued flit 13744
Requeued flit 13755
Requeued flit 13786
Requeued flit 13787
Requeued flit 13769
Requeued flit 13807
Requeued flit 13794
Requeued flit 13694
Requeued flit 13569
Requeued flit 13761
Requeued flit 13694
Requeued flit 13796
Requeued flit 13826
Requeued flit 13798
Requeued flit 13803
Requeued flit 13821
Requeued flit 13837
Requeued flit 13854
Requeued flit 13838
Requeued flit 13852
Requeued flit 13849
Requeued flit 13866
Requeued flit 13842
Requeued flit 13878
Requeued flit 13841
Requeued flit 13912
Requeued flit 13857
Requeued flit 13904
Requeued flit 13933
Requeued flit 13938
Requeued flit 13931
Requeued flit 13942
Requeued flit 13947
Requeued flit 13877
Requeued flit 13974
Requeued flit 13933
Requeued flit 13980
Requeued flit 13963
Requeued flit 13986
Requeued flit 13967
Requeued flit 13966
Requeued flit 13905
Requeued flit 13983
Requeued flit 13988
Requeued flit 13985
Requeued flit 13962
Requeued flit 14022
Requeued flit 14027
Requeued flit 14001
Requeued flit 14003
Requeued flit 14036
Requeued flit 14009
Requeued flit 13877
Requeued flit 14033
Requeued flit 14026
Requeued flit 14040
Requeued flit 14029
Requeued flit 14027
Requeued flit 14067
Requeued flit 14083
Requeued flit 14081
Requeued flit 13944
Requeued flit 14110
Requeued flit 14052
Requeued flit 14132
Requeued flit 14081
Requeued flit 14099
Requeued flit 14170
Requeued flit 14148
Requeued flit 14112
Requeued flit 14160
Requeued flit 14113
Requeued flit 14133
Requeued flit 13987
Requeued flit 14135
Requeued flit 14133
Requeued flit 14202
Requeued flit 14193
Requeued flit 14150
Requeued flit 14225
Requeued flit 14073
Requeued flit 14239
Requeued flit 14230
Requeued flit 14227
Requeued flit 14244
Requeued flit 14150
Requeued flit 14267
Requeued flit 14259
Requeued flit 14260
Requeued flit 14153
Requeued flit 14202
Requeued flit 14203
Requeued flit 14137
Requeued flit 14249
Requeued flit 14288
Requeued flit 14280
Requeued flit 14291
Requeued flit 14251
Requeued flit 14311
Requeued flit 14275
Requeued flit 14282
Requeued flit 14286
Requeued flit 14276
Requeued flit 14302
Requeued flit 14300
Requeued flit 14299
Requeued flit 14278
Requeued flit 14288
Requeued flit 14328
Requeued flit 14297
Requeued flit 14332
Requeued flit 14358
Requeued flit 14388
Requeued flit 14319
Requeued flit 14321
Requeued flit 14352
Requeued flit 14408
Requeued flit 14412
Requeued flit 14353
Requeued flit 14415
Requeued flit 14430
Requeued flit 14419
Requeued flit 14455
Requeued flit 14470
Requeued flit 14454
Requeued flit 14452
Requeued flit 14404
Requeued flit 14466
Requeued flit 14497
Requeued flit 14506
Requeued flit 14504
Requeued flit 14486
Requeued flit 14488
Requeued flit 14504
Requeued flit 14383
Requeued flit 14488
Requeued flit 14532
Requeued flit 14540
Requeued flit 14458
Requeued flit 14505
Requeued flit 14558
Requeued flit 14555
Requeued flit 14468
Requeued flit 14562
Requeued flit 14578
Requeued flit 14446
Requeued flit 14453
Requeued flit 14505
Requeued flit 14576
Requeued flit 14478
Requeued flit 14571
Requeued flit 14490
Requeued flit 14602
Requeued flit 14453
Requeued flit 14563
Requeued flit 14603
Requeued flit 14609
Requeued flit 14612
Requeued flit 14590
Requeued flit 14621
Requeued flit 14611
Requeued flit 14566
Requeued flit 14592
Requeued flit 14564
Requeued flit 14627
Requeued flit 14607
Requeued flit 14686
Requeued flit 14643
Requeued flit 14670
Requeued flit 14613
Requeued flit 14682
Requeued flit 14534
Requeued flit 14680
Requeued flit 14690
Requeued flit 14613
Requeued flit 14711
Requeued flit 14681
Requeued flit 14689
Requeued flit 14726
Requeued flit 14719
Requeued flit 14717
Requeued flit 14684
Requeued flit 14731
Requeued flit 14612
Requeued flit 14734
Requeued flit 14745
Requeued flit 14729
Requeued flit 14664
Requeued flit 14791
Requeued flit 14783
Requeued flit 14805
Requeued flit 14801
Requeued flit 14757
Requeued flit 14750
Requeued flit 14693
Requeued flit 14839
Requeued flit 14843
Requeued flit 14828
Requeued flit 14807
Requeued flit 14789
Requeued flit 14819
Requeued flit 14869
Requeued flit 14851
Requeued flit 14821
Requeued flit 14891
Requeued flit 14875
Requeued flit 14896
Requeued flit 14759
Requeued flit 14897
Requeued flit 14848
Requeued flit 14911
Requeued flit 14888
Requeued flit 14816
Requeued flit 14890
Requeued flit 14830
Requeued flit 14814
Requeued flit 14883
Requeued flit 14963
Requeued flit 14919
Requeued flit 14958
Requeued flit 14971
Requeued flit 14904
Requeued flit 14893
Requeued flit 14875
Requeued flit 14950
Requeued flit 14877
Requeued flit 14973
Requeued flit 14697
Requeued flit 14733
Requeued flit 14814
Requeued flit 14960
Requeued flit 14975
Requeued flit 14953
Requeued flit 15045
Requeued flit 15015
Requeued flit 15053
Requeued flit 14956
Requeued flit 15039
Requeued flit 15030
Requeued flit 15063
Requeued flit 15070
Requeued flit 15069
Requeued flit 14997
Requeued flit 15000
Requeued flit 15092
Requeued flit 15095
Requeued flit 15086
Requeued flit 15054
Requeued flit 15044
Requeued flit 15062
Requeued flit 15099
Requeued flit 15097
Requeued flit 15040
Requeued flit 15034
Requeued flit 15054
Requeued flit 15126
Requeued flit 15113
Requeued flit 15093
Requeued flit 15117
Requeued flit 15049
Requeued flit 15144
Requeued flit 15049
Requeued flit 15132
Requeued flit 15143
Requeued flit 15138
Requeued flit 14984
Requeued flit 15101
Requeued flit 15028
Requeued flit 15098
Requeued flit 15126
Requeued flit 15168
Requeued flit 15050
Requeued flit 14908
Requeued flit 15157
Requeued flit 15189
Requeued flit 15169
Requeued flit 15191
Requeued flit 15188
Requeued flit 15204
Requeued flit 15192
Requeued flit 15134
Requeued flit 15149
Requeued flit 15160
Requeued flit 15121
Requeued flit 15254
Requeued flit 15242
Requeued flit 15243
Requeued flit 15210
Requeued flit 15241
Requeued flit 15267
Requeued flit 15253
Requeued flit 15162
Requeued flit 15256
Requeued flit 15280
Requeued flit 15292
Requeued flit 15203
Requeued flit 15242
Requeued flit 15305
Requeued flit 15268
Requeued flit 15201
Requeued flit 15289
Requeued flit 15294
Requeued flit 15259
Requeued flit 15331
Requeued flit 15291
Requeued flit 15318
Requeued flit 15299
Requeued flit 15319
Requeued flit 15353
Requeued flit 15334
Requeued flit 15337
Requeued flit 15353
Requeued flit 15352
Requeued flit 15390
Requeued flit 15372
Requeued flit 15337
Requeued flit 15325
Requeued flit 15383
Requeued flit 15373
Requeued flit 15386
Requeued flit 15333
Requeued flit 15403
Requeued flit 15407
Requeued flit 15336
Requeued flit 15430
Requeued flit 15358
Requeued flit 15359
Requeued flit 15454
Requeued flit 15437
Requeued flit 15460
Requeued flit 15386
Requeued flit 15467
Requeued flit 15433
Requeued flit 15429
Requeued flit 15259
Requeued flit 15400
Requeued flit 15450
Requeued flit 15463
Requeued flit 15510
Requeued flit 15515
Requeued flit 15386
Requeued flit 15505
Requeued flit 15521
Requeued flit 15400
Requeued flit 15516
Requeued flit 15485
Requeued flit 15450
Requeued flit 15479
Requeued flit 15250
Requeued flit 15496
Requeued flit 15558
Requeued flit 15531
Requeued flit 15569
Requeued flit 15572
Requeued flit 15551
Requeued flit 15434
Requeued flit 15585
Requeued flit 15597
Requeued flit 15492
Requeued flit 15612
Requeued flit 15600
Requeued flit 15588
Requeued flit 15553
Requeued flit 15594
Requeued flit 15569
Requeued flit 15627
Requeued flit 15646
Requeued flit 15625
Requeued flit 15679
Requeued flit 15683
Requeued flit 15646
Requeued flit 15682
Requeued flit 15605
Requeued flit 15604
Requeued flit 15678
Requeued flit 15704
Requeued flit 15724
Requeued flit 15714
Requeued flit 15739
Requeued flit 15735
Requeued flit 15731
Requeued flit 15713
Requeued flit 15656
Requeued flit 15734
Requeued flit 15721
Requeued flit 15700
Requeued flit 15616
Requeued flit 15749
Requeued flit 15571
Requeued flit 15746
Requeued flit 15792
Requeued flit 15775
Requeued flit 15781
Requeued flit 15799
Requeued flit 15790
Requeued flit 15798
Requeued flit 15793
Requeued flit 15811
Requeued flit 15840
Requeued flit 15766
Requeued flit 15857
Requeued flit 15860
Requeued flit 15850
Requeued flit 15848
Requeued flit 15869
Requeued flit 15819
Requeued flit 15851
Requeued flit 15878
Requeued flit 15852
Requeued flit 15768
Requeued flit 15889
Requeued flit 15888
Requeued flit 15874
Requeued flit 15861
Requeued flit 15836
Requeued flit 15831
Requeued flit 15844
Requeued flit 15904
Requeued flit 15896
Requeued flit 15897
Requeued flit 15924
Requeued flit 15891
Requeued flit 15909
Requeued flit 15944
Requeued flit 15947
Requeued flit 15938
Requeued flit 15969
Requeued flit 15993
Requeued flit 15934
Requeued flit 16001
Requeued flit 15983
Requeued flit 15949
Requeued flit 15990
Requeued flit 16048
Requeued flit 16046
Requeued flit 16077
Requeued flit 16095
Requeued flit 16056
Requeued flit 16086
Requeued flit 16096
Requeued flit 15786
Requeued flit 16123
Requeued flit 16070
Requeued flit 16098
Requeued flit 16135
Requeued flit 16143
Requeued flit 15949
Requeued flit 16108
Requeued flit 16095
Requeued flit 16145
Requeued flit 16134
Requeued flit 16164
Requeued flit 16146
Requeued flit 16148
Requeued flit 16056
Requeued flit 16175
Requeued flit 16026
Requeued flit 16183
Requeued flit 16113
Requeued flit 16106
Requeued flit 16097
Requeued flit 16071
Requeued flit 16159
Requeued flit 16206
Requeued flit 16194
Requeued flit 16213
Requeued flit 16163
Requeued flit 16221
Requeued flit 16185
Requeued flit 16224
Requeued flit 16174
Requeued flit 16245
Requeued flit 15908
Requeued flit 16171
Requeued flit 16248
Requeued flit 16268
Requeued flit 16239
Requeued flit 15980
Requeued flit 15945
Requeued flit 16288
Requeued flit 16252
Requeued flit 16297
Requeued flit 16289
Requeued flit 16315
Requeued flit 16303
Requeued flit 16285
Requeued flit 16330
Requeued flit 16230
Requeued flit 16345
Requeued flit 16279
Requeued flit 16308
Requeued flit 16335
Requeued flit 16346
Requeued flit 16323
Requeued flit 16211
Requeued flit 16390
Requeued flit 16395
Requeued flit 16386
Requeued flit 16365
Requeued flit 16393
Requeued flit 16323
Requeued flit 16389
Requeued flit 16421
Requeued flit 16378
Requeued flit 16419
Requeued flit 16333
Requeued flit 16368
Requeued flit 16442
Requeued flit 16455
Requeued flit 16448
Requeued flit 16485
Requeued flit 16463
Requeued flit 16430
Requeued flit 16482
Requeued flit 16486
Requeued flit 16466
Requeued flit 16502
Requeued flit 16500
Requeued flit 16287
Requeued flit 16476
Requeued flit 16410
Requeued flit 16548
Requeued flit 16536
Requeued flit 16487
Requeued flit 16533
Requeued flit 16571
Requeued flit 16546
Requeued flit 16574
Requeued flit 16595
Requeued flit 16581
Requeued flit 16603
Requeued flit 16606
Requeued flit 16337
Requeued flit 16587
Requeued flit 16580
Requeued flit 16515
Requeued flit 16617
Requeued flit 16598
Requeued flit 16544
Requeued flit 16649
Requeued flit 16654
Requeued flit 16635
Requeued flit 16627
Requeued flit 16595
Requeued flit 16487
Requeued flit 16547
Requeued flit 16667
Requeued flit 16618
Requeued flit 16722
Requeued flit 16725
Requeued flit 16740
Requeued flit 16741
Requeued flit 16772
Requeued flit 16762
Requeued flit 16726
Requeued flit 16780
Requeued flit 16810
Requeued flit 16740
Requeued flit 16750
Requeued flit 16767
Requeued flit 16782
Requeued flit 16790
Requeued flit 16852
Requeued flit 16848
Requeued flit 16841
Requeued flit 16791
Requeued flit 16838
Requeued flit 16724
Requeued flit 16790
Requeued flit 16863
Requeued flit 16840
Requeued flit 16864
Requeued flit 16895
Requeued flit 16789
Requeued flit 16574
Requeued flit 16831
Requeued flit 16909
Requeued flit 16927
Requeued flit 16948
Requeued flit 16859
Requeued flit 16946
Requeued flit 16941
Requeued flit 16928
Requeued flit 16939
Requeued flit 16879
Requeued flit 16925
Requeued flit 16970
Requeued flit 16976
Requeued flit 16865
Requeued flit 16928
Requeued flit 16997
Requeued flit 16947
Requeued flit 17014
Requeued flit 16914
Requeued flit 16970
Requeued flit 16989
Requeued flit 17033
Requeued flit 16970
Requeued flit 17051
Requeued flit 17013
Requeued flit 17046
Requeued flit 17033
Requeued flit 17017
Requeued flit 17045
Requeued flit 16888
Requeued flit 17012
Requeued flit 17065
Requeued flit 17074
Requeued flit 17035
Requeued flit 17088
Requeued flit 16996
Requeued flit 17013
Requeued flit 17102
Requeued flit 16977
Requeued flit 17129
Requeued flit 17117
Requeued flit 17081
Requeued flit 17129
Requeued flit 17118
Requeued flit 17020
Requeued flit 17135
Requeued flit 16980
Requeued flit 17054
Requeued flit 17099
Requeued flit 16953
Requeued flit 16980
Requeued flit 17164
Requeued flit 17192
Requeued flit 17132
Requeued flit 17180
Requeued flit 16977
Requeued flit 17238
Requeued flit 17229
Requeued flit 17236
Requeued flit 17245
Requeued flit 17202
Requeued flit 17245
Requeued flit 17232
Requeued flit 17257
Requeued flit 17259
Requeued flit 17185
Requeued flit 17264
Requeued flit 17235
Requeued flit 17125
Requeued flit 17243
Requeued flit 17271
Requeued flit 17252
Requeued flit 17284
Requeued flit 17230
Requeued flit 17240
Requeued flit 17223
Requeued flit 17285
Requeued flit 17280
Requeued flit 17279
Requeued flit 17290
Requeued flit 17299
Requeued flit 17304
Requeued flit 17319
Requeued flit 17303
Requeued flit 17263
Requeued flit 17298
Requeued flit 17253
Requeued flit 17294
Requeued flit 17333
Requeued flit 17197
Requeued flit 17339
Requeued flit 17354
Requeued flit 17336
Requeued flit 17335
Requeued flit 17329
Requeued flit 17294
Requeued flit 17361
Requeued flit 17321
Requeued flit 17355
Requeued flit 17280
Requeued flit 17286
Requeued flit 17258
Requeued flit 17390
Requeued flit 17403
Requeued flit 17402
Requeued flit 17370
Requeued flit 17341
Requeued flit 17430
Requeued flit 17421
Requeued flit 17443
Requeued flit 17341
Requeued flit 17429
Requeued flit 17348
Requeued flit 17454
Requeued flit 17344
Requeued flit 17446
Requeued flit 17472
Requeued flit 17314
Requeued flit 17459
Requeued flit 17485
Requeued flit 17486
Requeued flit 17491
Requeued flit 17490
Requeued flit 17461
Requeued flit 17437
Requeued flit 17491
Requeued flit 17516
Requeued flit 17497
Requeued flit 17429
Requeued flit 17492
Requeued flit 17517
Requeued flit 17458
Requeued flit 17523
Requeued flit 17525
Requeued flit 17513
Requeued flit 17539
Requeued flit 17533
Requeued flit 17538
Requeued flit 17551
Requeued flit 17539
Requeued flit 17566
Requeued flit 17566
Requeued flit 17536
Requeued flit 17550
Requeued flit 17550
Requeued flit 17587
Requeued flit 17582
Requeued flit 17590
Requeued flit 17598
Requeued flit 17624
Requeued flit 17553
Requeued flit 17612
Requeued flit 17527
Requeued flit 17627
Requeued flit 17663
Requeued flit 17659
Requeued flit 17608
Requeued flit 17654
Requeued flit 17607
Requeued flit 17672
Requeued flit 17646
Requeued flit 17614
Requeued flit 17704
Requeued flit 17705
Requeued flit 17703
Requeued flit 17716
Requeued flit 17656
Requeued flit 17718
Requeued flit 17759
Requeued flit 17739
Requeued flit 17676
Requeued flit 17697
Requeued flit 17779
Requeued flit 17795
Requeued flit 17794
Requeued flit 17809
Requeued flit 17801
Requeued flit 17771
Requeued flit 17795
Requeued flit 17829
Requeued flit 17744
Requeued flit 17836
Requeued flit 17823
Requeued flit 17833
Requeued flit 17831
Requeued flit 17864
Requeued flit 17799
Requeued flit 17866
Requeued flit 17844
Requeued flit 17875
Requeued flit 17846
Requeued flit 17853
Requeued flit 17908
Requeued flit 17919
Requeued flit 17951
Requeued flit 17958
Requeued flit 17791
Requeued flit 17920
Requeued flit 17966
Requeued flit 17936
Requeued flit 17981
Requeued flit 17985
Requeued flit 17994
Requeued flit 18009
Requeued flit 17861
Requeued flit 18001
Requeued flit 18007
Requeued flit 17980
Requeued flit 17951
Requeued flit 18036
Requeued flit 18038
Requeued flit 18071
Requeued flit 18062
Requeued flit 18065
Requeued flit 18046
Requeued flit 17871
Requeued flit 18096
Requeued flit 18084
Requeued flit 17881
Requeued flit 18043
Requeued flit 18105
Requeued flit 18094
Requeued flit 18097
Requeued flit 18118
Requeued flit 18125
Requeued flit 18143
Requeued flit 18154
Requeued flit 18032
Requeued flit 17948
Requeued flit 18133
Requeued flit 18107
Requeued flit 18140
Requeued flit 18171
Requeued flit 18176
Requeued flit 17941
Requeued flit 17937
Requeued flit 18192
Requeued flit 18183
Requeued flit 18130
Requeued flit 17937
Requeued flit 18199
Requeued flit 18182
Requeued flit 18213
Requeued flit 18103
Requeued flit 18177
Requeued flit 18159
Requeued flit 18170
Requeued flit 18212
Requeued flit 18186
Requeued flit 18219
Requeued flit 18201
Requeued flit 18203
Requeued flit 18250
Requeued flit 18261
Requeued flit 18211
Requeued flit 18187
Requeued flit 18220
Requeued flit 18267
Requeued flit 18280
Requeued flit 18256
Requeued flit 18145
Requeued flit 18111
Requeued flit 18312
Requeued flit 18283
Requeued flit 18298
Requeued flit 18258
Requeued flit 18287
Requeued flit 18164
Requeued flit 18290
Requeued flit 18324
Requeued flit 18328
Requeued flit 18323
Requeued flit 18351
Requeued flit 18335
Requeued flit 18362
Requeued flit 18391
Requeued flit 18348
Requeued flit 18404
Requeued flit 18323
Requeued flit 18377
Requeued flit 18369
Requeued flit 18398
Requeued flit 18419
Requeued flit 18408
Requeued flit 18421
Requeued flit 18394
Requeued flit 18361
Requeued flit 18439
Requeued flit 18422
Requeued flit 18447
Requeued flit 18428
Requeued flit 18488
Requeued flit 18370
Requeued flit 18439
Requeued flit 18462
Requeued flit 18383
Requeued flit 18448
Requeued flit 18497
Requeued flit 18504
Requeued flit 18515
Requeued flit 18443
Requeued flit 18513
Requeued flit 18539
Requeued flit 18555
Requeued flit 18512
Requeued flit 18570
Requeued flit 18547
Requeued flit 18576
Requeued flit 18376
Requeued flit 18573
Requeued flit 18542
Requeued flit 18451
Requeued flit 18627
Requeued flit 18566
Requeued flit 18610
Requeued flit 18649
Requeued flit 18645
Requeued flit 18641
Requeued flit 18674
Requeued flit 18640
Requeued flit 18637
Requeued flit 18670
Requeued flit 18610
Requeued flit 18655
Requeued flit 18534
Requeued flit 18516
Requeued flit 18663
Requeued flit 18728
Requeued flit 18652
Requeued flit 18606
Requeued flit 18655
Requeued flit 18637
Requeued flit 18709
Requeued flit 18737
Requeued flit 18706
Requeued flit 18636
Requeued flit 18750
Requeued flit 18756
Requeued flit 18748
Requeued flit 18787
Requeued flit 18771
Requeued flit 18807
Requeued flit 18785
Requeued flit 18810
Requeued flit 18736
Requeued flit 18817
Requeued flit 18803
Requeued flit 18774
Requeued flit 18815
Requeued flit 18727
Requeued flit 18850
Requeued flit 18811
Requeued flit 18844
Requeued flit 18832
Requeued flit 18792
Requeued flit 18851
Requeued flit 18798
Requeued flit 18859
Requeued flit 18846
Requeued flit 18776
Requeued flit 18882
Requeued flit 18884
Requeued flit 18881
Requeued flit 18723
Requeued flit 18878
Requeued flit 18913
Requeued flit 18788
Requeued flit 18827
Requeued flit 18908
Requeued flit 18931
Requeued flit 18911
Requeued flit 18903
Requeued flit 18956
Requeued flit 18896
Requeued flit 18962
Requeued flit 18978
Requeued flit 18955
Requeued flit 18972
Requeued flit 18970
Requeued flit 18965
Requeued flit 18827
Requeued flit 18963
Requeued flit 18972
Requeued flit 18999
Requeued flit 19022
Requeued flit 18992
Requeued flit 19002
Requeued flit 19031
Requeued flit 19060
Requeued flit 19025
Requeued flit 19001
Requeued flit 18997
Requeued flit 19073
Requeued flit 19006
Requeued flit 19095
Requeued flit 19078
Requeued flit 19050
Requeued flit 18922
Requeued flit 19049
Requeued flit 19013
Requeued flit 19108
Requeued flit 19028
Requeued flit 19134
Requeued flit 19089
Requeued flit 19105
Requeued flit 19161
Requeued flit 19064
Requeued flit 19165
Class 0:
Packet latency average = 34.3123
	minimum = 5
	maximum = 559
Network latency average = 34.3123
	minimum = 5
	maximum = 559
Slowest packet = 15945
Flit latency average = 34.3123
	minimum = 5
	maximum = 559
Slowest flit = 15945
Fragmentation average = 0
	minimum = 0
	maximum = 0
Injected packet rate average = 0.0100891
	minimum = 0.008 (at node 11)
	maximum = 0.0119 (at node 29)
Accepted packet rate average = 0.0100719
	minimum = 0.0082 (at node 16)
	maximum = 0.0123 (at node 10)
Injected flit rate average = 0.0100891
	minimum = 0.008 (at node 11)
	maximum = 0.0119 (at node 29)
Accepted flit rate average= 0.0100719
	minimum = 0.0082 (at node 16)
	maximum = 0.0123 (at node 10)
Injected packet length average = 1
Accepted packet length average = 1
Total in-flight flits = 25 (0 measured)
latency change    = 0.00527833
throughput change = 0.0130313
Warmed up ...Time used is 30000 cycles
Requeued flit 19143
Requeued flit 19131
Requeued flit 19082
Requeued flit 19175
Requeued flit 19124
Requeued flit 19191
Requeued flit 19122
Requeued flit 19146
Requeued flit 19064
Requeued flit 19165
Requeued flit 19198
Requeued flit 19194
Requeued flit 19235
Requeued flit 19124
Requeued flit 19156
Requeued flit 19190
Requeued flit 19186
Requeued flit 19259
Requeued flit 19177
Requeued flit 19219
Requeued flit 19186
Requeued flit 19208
Requeued flit 19273
Requeued flit 19242
Requeued flit 19293
Requeued flit 19236
Requeued flit 19308
Requeued flit 19297
Requeued flit 19260
Requeued flit 19316
Requeued flit 19208
Requeued flit 19300
Requeued flit 19217
Requeued flit 19335
Requeued flit 19230
Requeued flit 19347
Requeued flit 19295
Requeued flit 19274
Requeued flit 19336
Requeued flit 19366
Requeued flit 19408
Requeued flit 19396
Requeued flit 19417
Requeued flit 19394
Requeued flit 19348
Requeued flit 19420
Requeued flit 19388
Requeued flit 19357
Requeued flit 19416
Requeued flit 19413
Requeued flit 19399
Requeued flit 19447
Requeued flit 19457
Requeued flit 19277
Requeued flit 19384
Requeued flit 19483
Requeued flit 19450
Requeued flit 19502
Requeued flit 19473
Requeued flit 19507
Requeued flit 19483
Requeued flit 19515
Requeued flit 19424
Requeued flit 19348
Requeued flit 19413
Requeued flit 19518
Requeued flit 19468
Requeued flit 19538
Requeued flit 19525
Requeued flit 19359
Requeued flit 19545
Requeued flit 19552
Requeued flit 19460
Requeued flit 19521
Requeued flit 19576
Requeued flit 19573
Requeued flit 19548
Requeued flit 19563
Requeued flit 19493
Requeued flit 19462
Requeued flit 19528
Requeued flit 19582
Requeued flit 19460
Requeued flit 19532
Requeued flit 19510
Requeued flit 19612
Requeued flit 19508
Requeued flit 19475
Requeued flit 19464
Requeued flit 19627
Requeued flit 19620
Requeued flit 19521
Requeued flit 19464
Requeued flit 19665
Requeued flit 19619
Requeued flit 19653
Requeued flit 19623
Requeued flit 19665
Requeued flit 19690
Requeued flit 19681
Requeued flit 19689
Requeued flit 19627
Requeued flit 19687
Requeued flit 19760
Requeued flit 19761
Requeued flit 19630
Requeued flit 19772
Requeued flit 19773
Requeued flit 19804
Requeued flit 19797
Requeued flit 19720
Requeued flit 19776
Requeued flit 19820
Requeued flit 19805
Requeued flit 19687
Requeued flit 19801
Requeued flit 19779
Requeued flit 19595
Requeued flit 19826
Requeued flit 19845
Requeued flit 19844
Requeued flit 19692
Requeued flit 19884
Requeued flit 19895
Requeued flit 19860
Requeued flit 19936
Requeued flit 19934
Requeued flit 19878
Requeued flit 19911
Requeued flit 19946
Requeued flit 19934
Requeued flit 19941
Requeued flit 19958
Requeued flit 19935
Requeued flit 19978
Requeued flit 19952
Requeued flit 19931
Requeued flit 19995
Requeued flit 19993
Requeued flit 19948
Requeued flit 19994
Requeued flit 19948
Requeued flit 19964
Requeued flit 19990
Requeued flit 19940
Requeued flit 20002
Requeued flit 20013
Requeued flit 20036
Requeued flit 20041
Requeued flit 20030
Requeued flit 20017
Requeued flit 20021
Requeued flit 20050
Requeued flit 20043
Requeued flit 20061
Requeued flit 20069
Requeued flit 20065
Requeued flit 20071
Requeued flit 20068
Requeued flit 20055
Requeued flit 20066
Requeued flit 20085
Requeued flit 19962
Requeued flit 20075
Requeued flit 20102
Requeued flit 20091
Requeued flit 20083
Requeued flit 20073
Requeued flit 20023
Requeued flit 20122
Requeued flit 19990
Requeued flit 20142
Requeued flit 20139
Requeued flit 20028
Requeued flit 20129
Requeued flit 20133
Requeued flit 20051
Requeued flit 19996
Requeued flit 20166
Requeued flit 20152
Requeued flit 20163
Requeued flit 20169
Requeued flit 20170
Requeued flit 20087
Requeued flit 20169
Requeued flit 20187
Requeued flit 20184
Requeued flit 20214
Requeued flit 20198
Requeued flit 20162
Requeued flit 20233
Requeued flit 20247
Requeued flit 20275
Requeued flit 20196
Requeued flit 20268
Requeued flit 20286
Requeued flit 20300
Requeued flit 20311
Requeued flit 20294
Requeued flit 20168
Requeued flit 20168
Requeued flit 20326
Requeued flit 20257
Requeued flit 20356
Requeued flit 20289
Requeued flit 20313
Requeued flit 20253
Requeued flit 20371
Requeued flit 20370
Requeued flit 20382
Requeued flit 20377
Requeued flit 20404
Requeued flit 20398
Requeued flit 20290
Requeued flit 20424
Requeued flit 20420
Requeued flit 20402
Requeued flit 20294
Requeued flit 20385
Requeued flit 20411
Requeued flit 20360
Requeued flit 20458
Requeued flit 20441
Requeued flit 20428
Requeued flit 20480
Requeued flit 20474
Requeued flit 20460
Requeued flit 20450
Requeued flit 20463
Requeued flit 20420
Requeued flit 20468
Requeued flit 20445
Requeued flit 20498
Requeued flit 20503
Requeued flit 20467
Requeued flit 20469
Requeued flit 20484
Requeued flit 20554
Requeued flit 20525
Requeued flit 20555
Requeued flit 20566
Requeued flit 20577
Requeued flit 20582
Requeued flit 20524
Requeued flit 20528
Requeued flit 20545
Requeued flit 20561
Requeued flit 20573
Requeued flit 20535
Requeued flit 20566
Requeued flit 20563
Requeued flit 20600
Requeued flit 20614
Requeued flit 20566
Requeued flit 20629
Requeued flit 20638
Requeued flit 20607
Requeued flit 20656
Requeued flit 20661
Requeued flit 20592
Requeued flit 20658
Requeued flit 20631
Requeued flit 20694
Requeued flit 20609
Requeued flit 20635
Requeued flit 20667
Requeued flit 20713
Requeued flit 20661
Requeued flit 20609
Requeued flit 20724
Requeued flit 20735
Requeued flit 20733
Requeued flit 20760
Requeued flit 20664
Requeued flit 20772
Requeued flit 20772
Requeued flit 20668
Requeued flit 20782
Requeued flit 20787
Requeued flit 20786
Requeued flit 20799
Requeued flit 20729
Requeued flit 20747
Requeued flit 20803
Requeued flit 20679
Requeued flit 20804
Requeued flit 20837
Requeued flit 20775
Requeued flit 20846
Requeued flit 20845
Requeued flit 20841
Requeued flit 20858
Requeued flit 20887
Requeued flit 20843
Requeued flit 20897
Requeued flit 20833
Requeued flit 20906
Requeued flit 20839
Requeued flit 20915
Requeued flit 20862
Requeued flit 20869
Requeued flit 20841
Requeued flit 20889
Requeued flit 20854
Requeued flit 20668
Requeued flit 20866
Requeued flit 20909
Requeued flit 20922
Requeued flit 20920
Requeued flit 20847
Requeued flit 20962
Requeued flit 20984
Requeued flit 20992
Requeued flit 20916
Requeued flit 20985
Requeued flit 20993
Requeued flit 20911
Requeued flit 21021
Requeued flit 21017
Requeued flit 20960
Requeued flit 21026
Requeued flit 21039
Requeued flit 20960
Requeued flit 21016
Requeued flit 20944
Requeued flit 21005
Requeued flit 21048
Requeued flit 21016
Requeued flit 21058
Requeued flit 21035
Requeued flit 21044
Requeued flit 20972
Requeued flit 21014
Requeued flit 21045
Requeued flit 21041
Requeued flit 21068
Requeued flit 20916
Requeued flit 21095
Requeued flit 21038
Requeued flit 21091
Requeued flit 21083
Requeued flit 21052
Requeued flit 21087
Requeued flit 21090
Requeued flit 21123
Requeued flit 21134
Requeued flit 21064
Requeued flit 21105
Requeued flit 21143
Requeued flit 21139
Requeued flit 21150
Requeued flit 21160
Requeued flit 21146
Requeued flit 21152
Requeued flit 21147
Requeued flit 21142
Requeued flit 21135
Requeued flit 21179
Requeued flit 21191
Requeued flit 21155
Requeued flit 21204
Requeued flit 21158
Requeued flit 21195
Requeued flit 21208
Requeued flit 21179
Requeued flit 21167
Requeued flit 21207
Requeued flit 21247
Requeued flit 21181
Requeued flit 21252
Requeued flit 21250
Requeued flit 21134
Requeued flit 21164
Requeued flit 21263
Requeued flit 21279
Requeued flit 21293
Requeued flit 21301
Requeued flit 21289
Requeued flit 21125
Requeued flit 21319
Requeued flit 21125
Requeued flit 21328
Requeued flit 21327
Requeued flit 21308
Requeued flit 21268
Requeued flit 21329
Requeued flit 21338
Requeued flit 21275
Requeued flit 21302
Requeued flit 21336
Requeued flit 21125
Requeued flit 21181
Requeued flit 21245
Requeued flit 21267
Requeued flit 21344
Requeued flit 21376
Requeued flit 21378
Requeued flit 21145
Requeued flit 21391
Requeued flit 21399
Requeued flit 21397
Requeued flit 21408
Requeued flit 21411
Requeued flit 21369
Requeued flit 21372
Requeued flit 21385
Requeued flit 21412
Requeued flit 21427
[...]
Requeued flit 34486
Requeued flit 34511
Requeued flit 34582
Requeued flit 34579
Requeued flit 34600
Requeued flit 34541
Requeued flit 34590
Requeued flit 34565
Requeued flit 34598
Requeued flit 34539
Requeued flit 34611
Requeued flit 34601
Requeued flit 34589
Requeued flit 34609
Requeued flit 34555
Requeued flit 34596
Requeued flit 34544
Requeued flit 34629
Requeued flit 34647
Requeued flit 34645
Requeued flit 34654
Requeued flit 34668
Requeued flit 34682
Requeued flit 34592
Requeued flit 34688
Requeued flit 34627
Requeued flit 34726
Requeued flit 34679
Requeued flit 34602
Requeued flit 34738
Requeued flit 34699
Requeued flit 34660
Requeued flit 34732
Requeued flit 34687
Requeued flit 34723
Requeued flit 34777
Requeued flit 34768
Requeued flit 34711
Requeued flit 34793
Requeued flit 34785
Requeued flit 34778
Requeued flit 34703
Requeued flit 34700
Requeued flit 34770
Requeued flit 34793
Requeued flit 34811
Requeued flit 34721
Requeued flit 34741
Requeued flit 34805
Requeued flit 34795
Requeued flit 34784
Requeued flit 34817
Requeued flit 34787
Requeued flit 34709
Requeued flit 34754
Requeued flit 34840
Requeued flit 34845
Requeued flit 34789
Requeued flit 34839
Requeued flit 34846
Requeued flit 34832
Requeued flit 34603
Requeued flit 34867
Requeued flit 34824
Requeued flit 34795
Requeued flit 34775
Requeued flit 34874
Requeued flit 34879
Requeued flit 34789
Requeued flit 34874
Requeued flit 34860
Requeued flit 34892
Requeued flit 34863
Requeued flit 34852
Requeued flit 34877
Requeued flit 34873
Requeued flit 34902
Requeued flit 34906
Requeued flit 34908
Requeued flit 34889
Requeued flit 34789
Requeued flit 34941
Requeued flit 34913
Requeued flit 34928
Requeued flit 34855
Requeued flit 34910
Requeued flit 34785
Requeued flit 34830
Requeued flit 34968
Requeued flit 34985
Requeued flit 34976
Requeued flit 34944
Requeued flit 34969
Requeued flit 34965
Requeued flit 34923
Requeued flit 34871
Requeued flit 34915
Requeued flit 34948
Requeued flit 34989
Requeued flit 34901
Requeued flit 34978
Requeued flit 34972
Requeued flit 35023
Requeued flit 34964
Requeued flit 34934
Requeued flit 34979
Requeued flit 35008
Requeued flit 35013
Requeued flit 35009
Requeued flit 35003
Requeued flit 35057
Requeued flit 35057
Requeued flit 35051
Requeued flit 34991
Requeued flit 35087
Requeued flit 35091
Requeued flit 35026
Requeued flit 35088
Requeued flit 34917
Requeued flit 35063
Requeued flit 35110
Requeued flit 35050
Requeued flit 35086
Requeued flit 35115
Requeued flit 35084
Requeued flit 35054
Requeued flit 35135
Requeued flit 35142
Requeued flit 35108
Requeued flit 34965
Requeued flit 35107
Requeued flit 35165
Requeued flit 35044
Requeued flit 35175
Requeued flit 35174
Requeued flit 35170
Requeued flit 35120
Requeued flit 35177
Requeued flit 35131
Requeued flit 35159
Requeued flit 35195
Requeued flit 35172
Requeued flit 35201
Requeued flit 35168
Requeued flit 35200
Requeued flit 35200
Requeued flit 35204
Requeued flit 35131
Requeued flit 35259
Requeued flit 35153
Requeued flit 35216
Requeued flit 35253
Requeued flit 35212
Requeued flit 35266
Requeued flit 35279
Requeued flit 35249
Requeued flit 35252
Requeued flit 35256
Requeued flit 35145
Requeued flit 35228
Requeued flit 35292
Requeued flit 35290
Requeued flit 35289
Requeued flit 35212
Requeued flit 35317
Requeued flit 35280
Requeued flit 35292
Requeued flit 35140
Requeued flit 35314
Requeued flit 35212
Requeued flit 35336
Requeued flit 35324
Requeued flit 35339
Requeued flit 35351
Requeued flit 35357
Requeued flit 35330
Requeued flit 35304
Requeued flit 35329
Requeued flit 35368
Requeued flit 35361
Requeued flit 35394
Requeued flit 35375
Requeued flit 35408
Requeued flit 35404
Requeued flit 35386
Requeued flit 35384
Requeued flit 35423
Requeued flit 35416
Requeued flit 35374
Requeued flit 35395
Requeued flit 35326
Requeued flit 35407
Requeued flit 35368
Requeued flit 35425
Requeued flit 35439
Requeued flit 35460
Requeued flit 35463
Requeued flit 35448
Requeued flit 35484
Requeued flit 35470
Requeued flit 35427
Requeued flit 35474
Requeued flit 35535
Requeued flit 35530
Requeued flit 35549
Requeued flit 35517
Requeued flit 35516
Requeued flit 35526
Requeued flit 35530
Requeued flit 35567
Requeued flit 35587
Requeued flit 35523
Requeued flit 35589
Requeued flit 35560
Requeued flit 35594
Requeued flit 35609
Requeued flit 35523
Requeued flit 35595
Requeued flit 35449
Requeued flit 35624
Requeued flit 35586
Requeued flit 35628
Requeued flit 35614
Requeued flit 35621
Requeued flit 35648
Requeued flit 35481
Requeued flit 35660
Requeued flit 35687
Requeued flit 35661
Requeued flit 35598
Requeued flit 35689
Requeued flit 35687
Requeued flit 35673
Requeued flit 35659
Requeued flit 35670
Requeued flit 35697
Requeued flit 35554
Requeued flit 35740
Requeued flit 35731
Requeued flit 35690
Requeued flit 35710
Requeued flit 35744
Requeued flit 35764
Requeued flit 35758
Requeued flit 35773
Requeued flit 35772
Requeued flit 35721
Requeued flit 35767
Requeued flit 35635
Requeued flit 35768
Requeued flit 35777
Requeued flit 35716
Requeued flit 35683
Requeued flit 35799
Requeued flit 35776
Requeued flit 35789
Requeued flit 35803
Requeued flit 35784
Requeued flit 35755
Requeued flit 35797
Requeued flit 35822
Requeued flit 35713
Requeued flit 35839
Requeued flit 35828
Requeued flit 35815
Requeued flit 35830
Requeued flit 35822
Requeued flit 35873
Requeued flit 35838
Requeued flit 35764
Requeued flit 35870
Requeued flit 35879
Requeued flit 35843
Requeued flit 35904
Requeued flit 35871
Requeued flit 35872
Requeued flit 35934
Requeued flit 35936
Requeued flit 35896
Requeued flit 35940
Requeued flit 35918
Requeued flit 35878
Requeued flit 35979
Requeued flit 35980
Requeued flit 35734
Requeued flit 35966
Requeued flit 35968
Requeued flit 35997
Requeued flit 35991
Requeued flit 36006
Requeued flit 36014
Requeued flit 36030
Requeued flit 36015
Requeued flit 36045
Requeued flit 36017
Requeued flit 35902
Requeued flit 36042
Requeued flit 36027
Requeued flit 36039
Requeued flit 35988
Requeued flit 36035
Requeued flit 36042
Requeued flit 36017
Requeued flit 35987
Requeued flit 36117
Requeued flit 36073
Requeued flit 36086
Requeued flit 36121
Requeued flit 36094
Requeued flit 36100
Requeued flit 36146
Requeued flit 36149
Requeued flit 36153
Requeued flit 36169
Requeued flit 36148
Requeued flit 36115
Requeued flit 36128
Requeued flit 36186
Requeued flit 36183
Requeued flit 36142
Requeued flit 36180
Requeued flit 36189
Requeued flit 36173
Requeued flit 36198
Requeued flit 36192
Requeued flit 36132
Requeued flit 36139
Requeued flit 36234
Requeued flit 36169
Requeued flit 36210
Requeued flit 36241
Requeued flit 36242
Requeued flit 36231
Requeued flit 36257
Requeued flit 36209
Requeued flit 36235
Requeued flit 36225
Requeued flit 36250
Requeued flit 36249
Requeued flit 36238
Requeued flit 36286
Requeued flit 36296
Requeued flit 36156
Requeued flit 36265
Requeued flit 36303
Requeued flit 36293
Requeued flit 36291
Requeued flit 36306
Requeued flit 36358
Requeued flit 36345
Requeued flit 36368
Requeued flit 36332
Requeued flit 36357
Requeued flit 36281
Requeued flit 36332
Requeued flit 36233
Requeued flit 36378
Requeued flit 36398
Requeued flit 36406
Requeued flit 36383
Requeued flit 36373
Requeued flit 36433
Requeued flit 36325
Requeued flit 36328
Requeued flit 36443
Requeued flit 36368
Requeued flit 36414
Requeued flit 36452
Requeued flit 36338
Requeued flit 36449
Requeued flit 36461
Requeued flit 36380
Requeued flit 36466
Requeued flit 36467
Requeued flit 36398
Requeued flit 36508
Requeued flit 36539
Requeued flit 36504
Requeued flit 36557
Requeued flit 36550
Requeued flit 36504
Requeued flit 36548
Requeued flit 36492
Requeued flit 36575
Requeued flit 36531
Requeued flit 36571
Requeued flit 36503
Requeued flit 36573
Requeued flit 36503
Requeued flit 36614
Requeued flit 36590
Requeued flit 36592
Requeued flit 36571
Requeued flit 36599
Requeued flit 36576
Requeued flit 36595
Requeued flit 36602
Requeued flit 36637
Requeued flit 36643
Requeued flit 36644
Requeued flit 36642
Requeued flit 36603
Requeued flit 36601
Requeued flit 36652
Requeued flit 36576
Requeued flit 36636
Requeued flit 36639
Requeued flit 36660
Requeued flit 36674
Requeued flit 36685
Requeued flit 36663
Requeued flit 36684
Requeued flit 36704
Requeued flit 36704
Requeued flit 36705
Requeued flit 36633
Requeued flit 36630
Requeued flit 36718
Requeued flit 36741
Requeued flit 36692
Requeued flit 36606
Requeued flit 36734
Requeued flit 36711
Requeued flit 36716
Requeued flit 36717
Requeued flit 36745
Requeued flit 36740
Requeued flit 36755
Requeued flit 36704
Requeued flit 36762
Requeued flit 36677
Requeued flit 36759
Requeued flit 36724
Requeued flit 36792
Requeued flit 36800
Requeued flit 36734
Requeued flit 36766
Requeued flit 36767
Requeued flit 36755
Requeued flit 36802
Requeued flit 36715
Requeued flit 36794
Requeued flit 36849
Requeued flit 36861
Requeued flit 36854
Requeued flit 36862
Requeued flit 36836
Requeued flit 36870
Requeued flit 36865
Requeued flit 36858
Requeued flit 36882
Requeued flit 36766
Requeued flit 36906
Requeued flit 36680
Requeued flit 36896
Requeued flit 36895
Requeued flit 36885
Requeued flit 36850
Requeued flit 36923
Requeued flit 36953
Requeued flit 36944
Requeued flit 36962
Requeued flit 36906
Requeued flit 36885
Requeued flit 36950
Requeued flit 36899
Requeued flit 36983
Requeued flit 36950
Requeued flit 36948
Requeued flit 36961
Requeued flit 37000
Requeued flit 37009
Requeued flit 36988
Requeued flit 37014
Requeued flit 37004
Requeued flit 37042
Requeued flit 36899
Requeued flit 37054
Requeued flit 37010
Requeued flit 37007
Requeued flit 37060
Requeued flit 37041
Requeued flit 37017
Requeued flit 37083
Requeued flit 37081
Requeued flit 37082
Requeued flit 36997
Requeued flit 37038
Requeued flit 37089
Requeued flit 37035
Requeued flit 37105
Requeued flit 37075
Requeued flit 37079
Requeued flit 37045
Requeued flit 37115
Requeued flit 37047
Requeued flit 36952
Requeued flit 37121
Requeued flit 37106
Requeued flit 37072
Requeued flit 37149
Requeued flit 37146
Requeued flit 37134
Requeued flit 37072
Requeued flit 37118
Requeued flit 37163
Requeued flit 37140
Requeued flit 36890
Requeued flit 37173
Requeued flit 37209
Requeued flit 37126
Requeued flit 37201
Requeued flit 37228
Requeued flit 37228
Requeued flit 37222
Requeued flit 37252
Requeued flit 37230
Requeued flit 37259
Requeued flit 37211
Requeued flit 37262
Requeued flit 37263
Requeued flit 37253
Requeued flit 37286
Requeued flit 37284
Requeued flit 37268
Requeued flit 37300
Requeued flit 37307
Requeued flit 37254
Requeued flit 37290
Requeued flit 37199
Requeued flit 37285
Requeued flit 37296
Requeued flit 37203
Requeued flit 37333
Requeued flit 37112
Requeued flit 37322
Requeued flit 37221
Requeued flit 37242
Requeued flit 37292
Requeued flit 37129
Requeued flit 37342
Requeued flit 37225
Requeued flit 37345
Requeued flit 37355
Requeued flit 37129
Requeued flit 37362
Requeued flit 37367
Requeued flit 37345
Requeued flit 37384
Requeued flit 37311
Requeued flit 37309
Requeued flit 37397
Requeued flit 37413
Requeued flit 37403
Requeued flit 37391
Requeued flit 37363
Requeued flit 37427
Requeued flit 37401
Requeued flit 37273
Requeued flit 37421
Requeued flit 37468
Requeued flit 37423
Requeued flit 37432
Requeued flit 37477
Requeued flit 37490
Requeued flit 37421
Requeued flit 37298
Requeued flit 37428
Requeued flit 37298
Requeued flit 37501
Requeued flit 37495
Requeued flit 37493
Requeued flit 37532
Requeued flit 37386
Requeued flit 37500
Requeued flit 37507
Requeued flit 37576
Requeued flit 37516
Requeued flit 37566
Requeued flit 37596
Requeued flit 37516
Requeued flit 37526
Requeued flit 37603
Requeued flit 37619
Requeued flit 37552
Requeued flit 37613
Requeued flit 37425
Requeued flit 37600
Requeued flit 37637
Requeued flit 37619
Requeued flit 37634
Requeued flit 37617
Requeued flit 37577
Requeued flit 37670
Requeued flit 37671
Requeued flit 37658
Requeued flit 37660
Requeued flit 37690
Requeued flit 37386
Requeued flit 37615
Requeued flit 37601
Requeued flit 37720
Requeued flit 37708
Requeued flit 37704
Requeued flit 37666
Requeued flit 37699
Requeued flit 37653
Requeued flit 37685
Requeued flit 37698
Requeued flit 37733
Requeued flit 37741
Requeued flit 37709
Requeued flit 37746
Requeued flit 37727
Requeued flit 37759
Requeued flit 37778
Requeued flit 37629
Requeued flit 37787
Requeued flit 37724
Requeued flit 37781
Requeued flit 37767
Requeued flit 37702
Requeued flit 37795
Requeued flit 37773
Requeued flit 37664
Requeued flit 37742
Requeued flit 37772
Requeued flit 37824
Requeued flit 37823
Requeued flit 37833
Requeued flit 37831
Requeued flit 37819
Requeued flit 37703
Requeued flit 37865
Requeued flit 37806
Requeued flit 37862
Requeued flit 37852
Requeued flit 37889
Requeued flit 37783
Requeued flit 37735
Requeued flit 37828
Requeued flit 37865
Requeued flit 37863
Requeued flit 37905
Requeued flit 37855
Requeued flit 37912
Requeued flit 37893
Requeued flit 37917
Requeued flit 37915
Requeued flit 37828
Requeued flit 37899
Requeued flit 37928
Requeued flit 37938
Requeued flit 37919
Requeued flit 37829
Requeued flit 37749
Requeued flit 37890
Requeued flit 37829
Requeued flit 37940
Requeued flit 37948
Requeued flit 37988
Requeued flit 38002
Requeued flit 37975
Requeued flit 37999
Requeued flit 38010
Requeued flit 38027
Requeued flit 37995
Requeued flit 38033
Requeued flit 38014
Requeued flit 38038
Requeued flit 38030
Requeued flit 38046
Requeued flit 37924
Requeued flit 37868
Requeued flit 38039
Requeued flit 38041
Requeued flit 38063
Requeued flit 38057
Requeued flit 38028
Requeued flit 38003
Requeued flit 38053
Requeued flit 38069
Requeued flit 38078
Requeued flit 37747
Requeued flit 38025
Requeued flit 38055
Requeued flit 38072
Requeued flit 38086
Requeued flit 38097
Requeued flit 38108
Requeued flit 38066
Requeued flit 38098
Requeued flit 38123
Requeued flit 38105
Requeued flit 38082
Requeued flit 38052
Requeued flit 38068
Requeued flit 38144
Requeued flit 38079
Requeued flit 38086
Requeued flit 38135
Requeued flit 38159
Requeued flit 38155
Requeued flit 38191
Requeued flit 38228
Requeued flit 38237
Requeued flit 38246
Requeued flit 38256
Requeued flit 37918
Requeued flit 38161
Requeued flit 38259
Requeued flit 38165
Requeued flit 38265
Requeued flit 38142
Requeued flit 38155
Requeued flit 38271
Requeued flit 38234
Requeued flit 38229
Requeued flit 38214
Requeued flit 38200
Requeued flit 38282
Requeued flit 38309
Requeued flit 38260
Requeued flit 38296
Requeued flit 38300
Requeued flit 38305
Requeued flit 38322
Requeued flit 38317
Requeued flit 38268
Requeued flit 38281
Requeued flit 38314
Requeued flit 38291
Requeued flit 38314
Requeued flit 38331
Requeued flit 38341
Requeued flit 38330
Requeued flit 38336
Requeued flit 38347
Requeued flit 38349
Requeued flit 38390
Requeued flit 38381
Requeued flit 38404
Requeued flit 38421
Requeued flit 38402
Requeued flit 38442
Requeued flit 38333
Requeued flit 38442
Class 0:
Packet latency average = 33.5906
	minimum = 5
	maximum = 879
Network latency average = 33.5906
	minimum = 5
	maximum = 879
Slowest packet = 30873
Flit latency average = 33.66
	minimum = 5
	maximum = 879
Slowest flit = 30873
Fragmentation average = 0
	minimum = 0
	maximum = 0
Injected packet rate average = 0.01005
	minimum = 0.00873333 (at node 30)
	maximum = 0.0119667 (at node 1)
Accepted packet rate average = 0.010051
	minimum = 0.00863333 (at node 17)
	maximum = 0.0112 (at node 10)
Injected flit rate average = 0.01005
	minimum = 0.00873333 (at node 30)
	maximum = 0.0119667 (at node 1)
Accepted flit rate average= 0.010051
	minimum = 0.00863333 (at node 17)
	maximum = 0.0112 (at node 10)
Injected packet length average = 1
Accepted packet length average = 1
Total in-flight flits = 23 (23 measured)
latency change    = 0.00567835
throughput change = 0.00290186
Draining all recorded packets ...
in flight = 23
in flight = 22
in flight = 22
in flight = 20
Requeued flit 38400
in flight = 20
in flight = 20
in flight = 20
in flight = 20
in flight = 20
Requeued flit 38392
in flight = 20
in flight = 20
in flight = 20
Requeued flit 38484
in flight = 19
in flight = 19
in flight = 19
in flight = 17
in flight = 15
in flight = 14
in flight = 13
in flight = 12
in flight = 11
in flight = 11
in flight = 10
in flight = 9
in flight = 9
in flight = 9
in flight = 8
in flight = 8
in flight = 8
in flight = 7
in flight = 7
in flight = 7
in flight = 7
in flight = 7
in flight = 7
in flight = 7
in flight = 7
in flight = 7
in flight = 7
Requeued flit 38476
in flight = 7
in flight = 7
in flight = 7
in flight = 7
in flight = 7
in flight = 7
in flight = 7
in flight = 7
in flight = 6
in flight = 6
in flight = 6
in flight = 6
in flight = 6
in flight = 6
in flight = 6
in flight = 6
in flight = 6
in flight = 6
in flight = 6
in flight = 6
in flight = 6
Requeued flit 38458
Requeued flit 38490
in flight = 6
in flight = 6
Requeued flit 38472
in flight = 6
in flight = 6
in flight = 6
Requeued flit 38378
in flight = 6
in flight = 6
in flight = 6
in flight = 6
in flight = 6
Requeued flit 38519
in flight = 6
in flight = 6
Requeued flit 38509
in flight = 6
Requeued flit 38510
in flight = 6
in flight = 6
in flight = 6
in flight = 6
in flight = 5
in flight = 5
in flight = 4
in flight = 4
in flight = 4
in flight = 4
in flight = 4
in flight = 4
in flight = 3
in flight = 3
in flight = 3
in flight = 3
in flight = 3
in flight = 3
in flight = 3
in flight = 3
in flight = 3
in flight = 3
in flight = 3
Requeued flit 38510
in flight = 3
in flight = 3
in flight = 3
in flight = 3
in flight = 3
in flight = 3
in flight = 3
in flight = 3
in flight = 3
in flight = 3
in flight = 3
in flight = 3
in flight = 3
in flight = 3
Requeued flit 38433
in flight = 3
Requeued flit 38490
in flight = 3
in flight = 3
in flight = 3
Requeued flit 38467
in flight = 3
in flight = 2
in flight = 2
in flight = 2
in flight = 2
in flight = 2
in flight = 2
in flight = 2
in flight = 2
in flight = 2
in flight = 2
in flight = 2
in flight = 2
in flight = 2
in flight = 2
Requeued flit 38547
in flight = 2
in flight = 2
Requeued flit 38563
in flight = 2
in flight = 2
in flight = 2
in flight = 2
Requeued flit 38503
in flight = 1
in flight = 1
Requeued flit 38556
in flight = 1
in flight = 1
in flight = 1
Draining remaining packets ...
Requeued flit 38553
Requeued flit 38527
Requeued flit 38557
Class 0:
Remaining flits: 38514 38527 38534 38549 38564 38566 38573 38575 38580 38584 (10 flits)
Measured flits: (0 flits)
WARNING: Possible network deadlock.
Class 0:
Remaining flits: 38514 38527 38534 38549 38564 38566 38573 38575 38580 38584 (10 flits)
Measured flits: (0 flits)
WARNING: Possible network deadlock.
Class 0:
Remaining flits: 38514 38527 38534 38549 38564 38566 38573 38575 38580 38584 (10 flits)
Measured flits: (0 flits)
WARNING: Possible network deadlock.
Class 0:
Remaining flits: 38514 38527 38534 38549 38564 38566 38573 38575 38580 38584 (10 flits)
Measured flits: (0 flits)
Time taken is 61140 cycles
====== Overall Traffic Statistics ======
====== Traffic class 0 ======
Packet latency average = 33.6377 (1 samples)
	minimum = 5 (1 samples)
	maximum = 879 (1 samples)
Network latency average = 33.6377 (1 samples)
	minimum = 5 (1 samples)
	maximum = 879 (1 samples)
Flit latency average = 33.6719 (1 samples)
	minimum = 5 (1 samples)
	maximum = 879 (1 samples)
Fragmentation average = 0 (1 samples)
	minimum = 0 (1 samples)
	maximum = 0 (1 samples)
Injected packet rate average = 0.01005 (1 samples)
	minimum = 0.00873333 (1 samples)
	maximum = 0.0119667 (1 samples)
Accepted packet rate average = 0.010051 (1 samples)
	minimum = 0.00863333 (1 samples)
	maximum = 0.0112 (1 samples)
Injected flit rate average = 0.01005 (1 samples)
	minimum = 0.00873333 (1 samples)
	maximum = 0.0119667 (1 samples)
Accepted flit rate average = 0.010051 (1 samples)
	minimum = 0.00863333 (1 samples)
	maximum = 0.0112 (1 samples)
Injected packet size average = 1 (1 samples)
Accepted packet size average = 1 (1 samples)
Hops average = 6.24559 (1 samples)
Total run time 19.0164
