BEGIN Configuration File: examples/ecc_mesh88_config_0_0.800_link_3
// $Id$

// Copyright (c) 2007-2015, Trustees of The Leland Stanford Junior University
// All rights reserved.
//
// Redistribution and use in source and binary forms, with or without
// modification, are permitted provided that the following conditions are met:
//
// Redistributions of source code must retain the above copyright notice, this
// list of conditions and the following disclaimer.
// Redistributions in binary form must reproduce the above copyright notice,
// this list of conditions and the following disclaimer in the documentation
// and/or other materials provided with the distribution.
//
// THIS SOFTWARE IS PROVIDED BY THE COPYRIGHT HOLDERS AND CONTRIBUTORS "AS IS"
// AND ANY EXPRESS OR IMPLIED WARRANTIES, INCLUDING, BUT NOT LIMITED TO, THE
// IMPLIED WARRANTIES OF MERCHANTABILITY AND FITNESS FOR A PARTICULAR PURPOSE
// ARE DISCLAIMED. IN NO EVENT SHALL THE COPYRIGHT OWNER OR CONTRIBUTORS BE
// LIABLE FOR ANY DIRECT, INDIRECT, INCIDENTAL, SPECIAL, EXEMPLARY, OR
// CONSEQUENTIAL DAMAGES (INCLUDING, BUT NOT LIMITED TO, PROCUREMENT OF
// SUBSTITUTE GOODS OR SERVICES; LOSS OF USE, DATA, OR PROFITS; OR BUSINESS
// INTERRUPTION) HOWEVER CAUSED AND ON ANY THEORY OF LIABILITY, WHETHER IN
// CONTRACT, STRICT LIABILITY, OR TORT (INCLUDING NEGLIGENCE OR OTHERWISE)
// ARISING IN ANY WAY OUT OF THE USE OF THIS SOFTWARE, EVEN IF ADVISED OF THE
// POSSIBILITY OF SUCH DAMAGE.

// Dragonfly
//




vc_buf_size = 256;


wait_for_tail_credit = 0;

//
// Router architecture
//
vc_allocator = separable_input_first; 
sw_allocator = separable_input_first;
alloc_iters  = 1;

credit_delay   = 2;
routing_delay  = 0;
vc_alloc_delay = 1;
sw_alloc_delay = 1;
st_final_delay = 1;

input_speedup     = 1;
output_speedup    = 1;
internal_speedup  = 2.0;


warmup_periods = 3;
sim_count          = 1;

sample_period  = 10000;  


routing_function = dor;
num_vcs     = 2;

priority = none;
traffic       = uniform; 

injection_rate = 0.8;
packet_size = 1;
injection_rate_uses_flits=1;

topology = mesh;

k  = 8;
n  = 2;

fer = 3;
ecc = link;
correctable = 0;

watch_out=-;
watch_file = watch.txt;

ecc = link;

stats_out = examples/ecc_mesh88_config_0_0.800_link_3.m;

END Configuration File: examples/ecc_mesh88_config_0_0.800_link_3
Requeued flit 17
Requeued flit 785
Requeued flit 549
Requeued flit 1269
Requeued flit 1672
Requeued flit 1532
Requeued flit 2250
Requeued flit 2578
Requeued flit 975
Requeued flit 1229
Requeued flit 3419
Requeued flit 3717
Requeued flit 2152
Requeued flit 5294
Requeued flit 5022
Requeued flit 3698
Requeued flit 3248
Requeued flit 5311
Requeued flit 2369
Requeued flit 5703
Requeued flit 4093
Requeued flit 7142
Requeued flit 6243
Requeued flit 3104
Requeued flit 8391
Requeued flit 8743
Requeued flit 8418
Requeued flit 8042
Requeued flit 4472
Requeued flit 9263
Requeued flit 4897
Requeued flit 9536
Requeued flit 11119
Requeued flit 10425
Requeued flit 11878
Requeued flit 11324
Requeued flit 5854
Requeued flit 5661
Requeued flit 10248
Requeued flit 11099
Requeued flit 7997
Requeued flit 10990
Requeued flit 12072
Requeued flit 7779
Requeued flit 7094
Requeued flit 14730
Requeued flit 9330
Requeued flit 8655
Requeued flit 9974
Requeued flit 12704
Requeued flit 7461
Requeued flit 6628
Requeued flit 7607
Requeued flit 15343
Requeued flit 10869
Requeued flit 12029
Requeued flit 10290
Requeued flit 15107
Requeued flit 16085
Requeued flit 17582
Requeued flit 17915
Requeued flit 14005
Requeued flit 12998
Requeued flit 11713
Requeued flit 12653
Requeued flit 12026
Requeued flit 16727
Requeued flit 10596
Requeued flit 9467
Requeued flit 10204
Requeued flit 12748
Requeued flit 13498
Requeued flit 19967
Requeued flit 10563
Requeued flit 21775
Requeued flit 19001
Requeued flit 21329
Requeued flit 22322
Requeued flit 22255
Requeued flit 16574
Requeued flit 18612
Requeued flit 22826
Requeued flit 16415
Requeued flit 18730
Requeued flit 22770
Requeued flit 17342
Requeued flit 13473
Requeued flit 22037
Requeued flit 23447
Requeued flit 14583
Requeued flit 23567
Requeued flit 24349
Requeued flit 8255
Requeued flit 17087
Requeued flit 19878
Requeued flit 21766
Requeued flit 16500
Requeued flit 24555
Requeued flit 25738
Requeued flit 9690
Requeued flit 15784
Requeued flit 16827
Requeued flit 17706
Requeued flit 13074
Requeued flit 24017
Requeued flit 14610
Requeued flit 16291
Requeued flit 27753
Requeued flit 29859
Requeued flit 17362
Requeued flit 24371
Requeued flit 22720
Requeued flit 27084
Requeued flit 18302
Requeued flit 11931
Requeued flit 29506
Requeued flit 17767
Requeued flit 30187
Requeued flit 16878
Requeued flit 17242
Requeued flit 17044
Requeued flit 32509
Requeued flit 18339
Requeued flit 21352
Requeued flit 33357
Requeued flit 15101
Requeued flit 17916
Requeued flit 22582
Requeued flit 25286
Requeued flit 14252
Requeued flit 13497
Requeued flit 18117
Requeued flit 36480
Requeued flit 29314
Requeued flit 22972
Requeued flit 18486
Requeued flit 26488
Requeued flit 36850
Requeued flit 33770
Requeued flit 30719
Requeued flit 37452
Requeued flit 37425
Requeued flit 27687
Requeued flit 21162
Requeued flit 28482
Requeued flit 30255
Requeued flit 30493
Requeued flit 31236
Requeued flit 38751
Requeued flit 24254
Requeued flit 29742
Requeued flit 33091
Requeued flit 39599
Requeued flit 39621
Requeued flit 20294
Requeued flit 28491
Requeued flit 25229
Requeued flit 25621
Requeued flit 32806
Requeued flit 40860
Requeued flit 33532
Requeued flit 40840
Requeued flit 34051
Requeued flit 24920
Requeued flit 30286
Requeued flit 33582
Requeued flit 33722
Requeued flit 41980
Requeued flit 24054
Requeued flit 27607
Requeued flit 21371
Requeued flit 37803
Requeued flit 35057
Requeued flit 23171
Requeued flit 35939
Requeued flit 44556
Requeued flit 44742
Requeued flit 23074
Requeued flit 23170
Requeued flit 38179
Requeued flit 27018
Requeued flit 38788
Requeued flit 22903
Requeued flit 36086
Requeued flit 46468
Requeued flit 31858
Requeued flit 35471
Requeued flit 48422
Requeued flit 29168
Requeued flit 37375
Requeued flit 50756
Requeued flit 35734
Requeued flit 25278
Requeued flit 30684
Requeued flit 26682
Requeued flit 50403
Requeued flit 28860
Requeued flit 52919
Requeued flit 46213
Requeued flit 54225
Requeued flit 29360
Requeued flit 28865
Requeued flit 54891
Requeued flit 27228
Requeued flit 33192
Requeued flit 55185
Requeued flit 46750
Requeued flit 34341
Requeued flit 26123
Requeued flit 28948
Requeued flit 44571
Requeued flit 33711
Requeued flit 54362
Requeued flit 56648
Requeued flit 45695
Requeued flit 39533
Requeued flit 57503
Requeued flit 36705
Requeued flit 36676
Requeued flit 37013
Requeued flit 35906
Requeued flit 30597
Requeued flit 47069
Requeued flit 59297
Requeued flit 49010
Requeued flit 30600
Requeued flit 47805
Requeued flit 47914
Requeued flit 48678
Requeued flit 35201
Requeued flit 39794
Requeued flit 60925
Requeued flit 60898
Requeued flit 35873
Requeued flit 55443
Requeued flit 42626
Requeued flit 33073
Requeued flit 33392
Requeued flit 50158
Requeued flit 63803
Requeued flit 52991
Requeued flit 26035
Requeued flit 50689
Requeued flit 40951
Requeued flit 49553
Requeued flit 56242
Requeued flit 65859
Requeued flit 54132
Requeued flit 33511
Requeued flit 28135
Requeued flit 46238
Requeued flit 34842
Requeued flit 64017
Requeued flit 54891
Requeued flit 66587
Requeued flit 56272
Requeued flit 59455
Requeued flit 56349
Requeued flit 67594
Requeued flit 55216
Requeued flit 67985
Requeued flit 39661
Requeued flit 68187
Requeued flit 55886
Requeued flit 34792
Requeued flit 54648
Requeued flit 43283
Requeued flit 69364
Requeued flit 37064
Requeued flit 58096
Requeued flit 52420
Requeued flit 58457
Requeued flit 36627
Requeued flit 35658
Requeued flit 36861
Requeued flit 35859
Requeued flit 35541
Requeued flit 48283
Requeued flit 61289
Requeued flit 50257
Requeued flit 59462
Requeued flit 50963
Requeued flit 63820
Requeued flit 49898
Requeued flit 58450
Requeued flit 62471
Requeued flit 58420
Requeued flit 34459
Requeued flit 32811
Requeued flit 73551
Requeued flit 56101
Requeued flit 61534
Requeued flit 73881
Requeued flit 36150
Requeued flit 44835
Requeued flit 43062
Requeued flit 60803
Requeued flit 35525
Requeued flit 43625
Requeued flit 56049
Requeued flit 31114
Requeued flit 63143
Requeued flit 56930
Requeued flit 75666
Requeued flit 75886
Requeued flit 73157
Requeued flit 49248
Requeued flit 62651
Requeued flit 53938
Requeued flit 76249
Requeued flit 56466
Requeued flit 58158
Requeued flit 64591
Requeued flit 38182
Requeued flit 77328
Requeued flit 48400
Requeued flit 48306
Requeued flit 40315
Requeued flit 57014
Requeued flit 47754
Requeued flit 63072
Requeued flit 56828
Requeued flit 59340
Requeued flit 47440
Requeued flit 46032
Requeued flit 79480
Requeued flit 63887
Requeued flit 67691
Requeued flit 71369
Requeued flit 80504
Requeued flit 68389
Requeued flit 81478
Requeued flit 60621
Requeued flit 71203
Requeued flit 69473
Requeued flit 41652
Requeued flit 50343
Requeued flit 74054
Requeued flit 83093
Requeued flit 71038
Requeued flit 84002
Requeued flit 69482
Requeued flit 71360
Requeued flit 49246
Requeued flit 64673
Requeued flit 52922
Requeued flit 66388
Requeued flit 53417
Requeued flit 85408
Requeued flit 63979
Requeued flit 77494
Requeued flit 54092
Requeued flit 42697
Requeued flit 82138
Requeued flit 36737
Requeued flit 74348
Requeued flit 54859
Requeued flit 66448
Requeued flit 82209
Requeued flit 71559
Requeued flit 67229
Requeued flit 88691
Requeued flit 74859
Requeued flit 67506
Requeued flit 43905
Requeued flit 74483
Requeued flit 68307
Requeued flit 65135
Requeued flit 70118
Requeued flit 58128
Requeued flit 57320
Requeued flit 83661
Requeued flit 92455
Requeued flit 70415
Requeued flit 76191
Requeued flit 91582
Requeued flit 69678
Requeued flit 69817
Requeued flit 76487
Requeued flit 43771
Requeued flit 58078
Requeued flit 70936
Requeued flit 47743
Requeued flit 77080
Requeued flit 79575
Requeued flit 62875
Requeued flit 70689
Requeued flit 78934
Requeued flit 45168
Requeued flit 49944
Requeued flit 55312
Requeued flit 48388
Requeued flit 35741
Requeued flit 62520
Requeued flit 81332
Requeued flit 96044
Requeued flit 71154
Requeued flit 72623
Requeued flit 61056
Requeued flit 81625
Requeued flit 53798
Requeued flit 69055
Requeued flit 96005
Requeued flit 74426
Requeued flit 45658
Requeued flit 79321
Requeued flit 97681
Requeued flit 97956
Requeued flit 97952
Requeued flit 45813
Requeued flit 77551
Requeued flit 74889
Requeued flit 87389
Requeued flit 50720
Requeued flit 93576
Requeued flit 38503
Requeued flit 71131
Requeued flit 101787
Requeued flit 102162
Requeued flit 96122
Requeued flit 76471
Requeued flit 78662
Requeued flit 97774
Requeued flit 101381
Requeued flit 53069
Requeued flit 49487
Requeued flit 85600
Requeued flit 85673
Requeued flit 85100
Requeued flit 38325
Requeued flit 101526
Requeued flit 86974
Requeued flit 88074
Requeued flit 99170
Requeued flit 49188
Requeued flit 104994
Requeued flit 84510
Requeued flit 80097
Requeued flit 79091
Requeued flit 63113
Requeued flit 103833
Requeued flit 50068
Requeued flit 51118
Requeued flit 79957
Requeued flit 80941
Requeued flit 48962
Requeued flit 88964
Requeued flit 54035
Requeued flit 43020
Requeued flit 81708
Requeued flit 101916
Requeued flit 89101
Requeued flit 108371
Requeued flit 82499
Requeued flit 103877
Requeued flit 82008
Requeued flit 105182
Requeued flit 83304
Requeued flit 104768
Requeued flit 90819
Requeued flit 89910
Requeued flit 109621
Requeued flit 63491
Requeued flit 83829
Requeued flit 83638
Requeued flit 56454
Requeued flit 110278
Requeued flit 93301
Requeued flit 67557
Requeued flit 84782
Requeued flit 65710
Requeued flit 53909
Requeued flit 111140
Requeued flit 58651
Requeued flit 92479
Requeued flit 66992
Requeued flit 89181
Requeued flit 84946
Requeued flit 103186
Requeued flit 92917
Requeued flit 62776
Requeued flit 65978
Requeued flit 112960
Requeued flit 94223
Requeued flit 87443
Requeued flit 87547
Requeued flit 113678
Requeued flit 106915
Requeued flit 91367
Requeued flit 88077
Requeued flit 94654
Requeued flit 113919
Requeued flit 55541
Requeued flit 88562
Requeued flit 88446
Requeued flit 115281
Requeued flit 85364
Requeued flit 115696
Requeued flit 113912
Requeued flit 50220
Requeued flit 73302
Requeued flit 91374
Requeued flit 100034
Requeued flit 116994
Requeued flit 110379
Requeued flit 111077
Requeued flit 98274
Requeued flit 89524
Requeued flit 91735
Requeued flit 49225
Requeued flit 100286
Requeued flit 118153
Requeued flit 61673
Requeued flit 119367
Requeued flit 47852
Requeued flit 90594
Requeued flit 90654
Requeued flit 64253
Requeued flit 119948
Requeued flit 73372
Requeued flit 120205
Requeued flit 91305
Requeued flit 57749
Requeued flit 62639
Requeued flit 97514
Requeued flit 59062
Requeued flit 67064
Requeued flit 61615
Requeued flit 93724
Requeued flit 97158
Requeued flit 88227
Requeued flit 121482
Requeued flit 95033
Requeued flit 64345
Requeued flit 122326
Requeued flit 105687
Requeued flit 57632
Requeued flit 70515
Requeued flit 102257
Requeued flit 123256
Requeued flit 55141
Requeued flit 96919
Requeued flit 103329
Requeued flit 104209
Requeued flit 88476
Requeued flit 111885
Requeued flit 98738
Requeued flit 102716
Requeued flit 121975
Requeued flit 75368
Requeued flit 69243
Requeued flit 105634
Requeued flit 123818
Requeued flit 61506
Requeued flit 78392
Requeued flit 77273
Requeued flit 119793
Requeued flit 127897
Requeued flit 60678
Requeued flit 124596
Requeued flit 128221
Requeued flit 98466
Requeued flit 123480
Requeued flit 94386
Requeued flit 108298
Requeued flit 81257
Requeued flit 103587
Requeued flit 105517
Requeued flit 80466
Requeued flit 130349
Requeued flit 112589
Requeued flit 102309
Requeued flit 109301
Requeued flit 80097
Requeued flit 60880
Requeued flit 104185
Requeued flit 108386
Requeued flit 67284
Requeued flit 105135
Requeued flit 107184
Requeued flit 84284
Requeued flit 128208
Requeued flit 64196
Requeued flit 133188
Requeued flit 106706
Requeued flit 126928
Requeued flit 107616
Requeued flit 121743
Requeued flit 118999
Requeued flit 132650
Requeued flit 67730
Requeued flit 100826
Requeued flit 71482
Requeued flit 109434
Requeued flit 113161
Requeued flit 80309
Requeued flit 136630
Requeued flit 132455
Requeued flit 111133
Requeued flit 111203
Requeued flit 65833
Requeued flit 65724
Requeued flit 56064
Requeued flit 134451
Requeued flit 82171
Requeued flit 112172
Requeued flit 138465
Requeued flit 111384
Requeued flit 66998
Requeued flit 69559
Requeued flit 120695
Requeued flit 115144
Requeued flit 113325
Requeued flit 90708
Requeued flit 99926
Requeued flit 84803
Requeued flit 67397
Requeued flit 88675
Requeued flit 110711
Requeued flit 90814
Requeued flit 117075
Requeued flit 137691
Requeued flit 68038
Requeued flit 98962
Requeued flit 141702
Requeued flit 138597
Requeued flit 104977
Requeued flit 92503
Requeued flit 67530
Requeued flit 103600
Requeued flit 133926
Requeued flit 69229
Requeued flit 111341
Requeued flit 134808
Requeued flit 119348
Requeued flit 143501
Requeued flit 118903
Requeued flit 65442
Requeued flit 120894
Requeued flit 145231
Requeued flit 93741
Requeued flit 90676
Requeued flit 87103
Requeued flit 101158
Requeued flit 69637
Requeued flit 146622
Requeued flit 86678
Requeued flit 141755
Requeued flit 64394
Requeued flit 147176
Requeued flit 90065
Requeued flit 60713
Requeued flit 95160
Requeued flit 74569
Requeued flit 92697
Requeued flit 111598
Requeued flit 88295
Requeued flit 140286
Requeued flit 143072
Requeued flit 77815
Requeued flit 91772
Requeued flit 119049
Requeued flit 124887
Requeued flit 150333
Requeued flit 121834
Requeued flit 68348
Requeued flit 126646
Requeued flit 72447
Requeued flit 125347
Requeued flit 98266
Requeued flit 126299
Requeued flit 122886
Requeued flit 145327
Requeued flit 119168
Requeued flit 153612
Requeued flit 71838
Requeued flit 125307
Requeued flit 127089
Requeued flit 73643
Requeued flit 149752
Requeued flit 95014
Requeued flit 98404
Requeued flit 75775
Requeued flit 127344
Requeued flit 149134
Requeued flit 77061
Requeued flit 147336
Requeued flit 147807
Requeued flit 121646
Requeued flit 125559
Requeued flit 128089
Requeued flit 102983
Requeued flit 148777
Requeued flit 129627
Requeued flit 126433
Requeued flit 126933
Requeued flit 126042
Requeued flit 129609
Requeued flit 76644
Requeued flit 158990
Requeued flit 126845
Requeued flit 76949
Requeued flit 125488
Requeued flit 100744
Requeued flit 125745
Requeued flit 160653
Requeued flit 101988
Requeued flit 85878
Requeued flit 135874
Requeued flit 125384
Requeued flit 116000
Requeued flit 151886
Requeued flit 125282
Requeued flit 93788
Requeued flit 159118
Requeued flit 154642
Requeued flit 92214
Requeued flit 96240
Requeued flit 103277
Requeued flit 77931
Requeued flit 137689
Requeued flit 146261
Requeued flit 137967
Requeued flit 123196
Requeued flit 128423
Requeued flit 81508
Requeued flit 160083
Requeued flit 130977
Requeued flit 101558
Requeued flit 83943
Requeued flit 78815
Requeued flit 152390
Requeued flit 111088
Requeued flit 101442
Requeued flit 133818
Requeued flit 137675
Requeued flit 115909
Requeued flit 109056
Requeued flit 138552
Requeued flit 167074
Requeued flit 158563
Requeued flit 167708
Requeued flit 133144
Requeued flit 138599
Requeued flit 106121
Requeued flit 165543
Requeued flit 85105
Requeued flit 82262
Requeued flit 115749
Requeued flit 149355
Requeued flit 129737
Requeued flit 140196
Requeued flit 79356
Requeued flit 135849
Requeued flit 169084
Requeued flit 101954
Requeued flit 86316
Requeued flit 165062
Requeued flit 122197
Requeued flit 75613
Requeued flit 99476
Requeued flit 90259
Requeued flit 78948
Requeued flit 147062
Requeued flit 99737
Requeued flit 145147
Requeued flit 147783
Requeued flit 100625
Requeued flit 100824
Requeued flit 119852
Requeued flit 118318
Requeued flit 138987
Requeued flit 172087
Requeued flit 149430
Requeued flit 165163
Requeued flit 103922
Requeued flit 167015
Requeued flit 148491
Requeued flit 85383
Requeued flit 129485
Requeued flit 158825
Requeued flit 118860
Requeued flit 115301
Requeued flit 149760
Requeued flit 150382
Requeued flit 135519
Requeued flit 164465
Requeued flit 105518
Requeued flit 166965
Requeued flit 84177
Requeued flit 83512
Requeued flit 160066
Requeued flit 151486
Requeued flit 169286
Requeued flit 137898
Requeued flit 169471
Requeued flit 174806
Requeued flit 143719
Requeued flit 93979
Requeued flit 170146
Requeued flit 150158
Requeued flit 170852
Requeued flit 87124
Requeued flit 105968
Requeued flit 156281
Requeued flit 73222
Requeued flit 83153
Requeued flit 157105
Requeued flit 89897
Requeued flit 131681
Requeued flit 156392
Requeued flit 159280
Requeued flit 119502
Requeued flit 144945
Requeued flit 119605
Requeued flit 167184
Requeued flit 156878
Requeued flit 86071
Requeued flit 166636
Requeued flit 157160
Requeued flit 174692
Requeued flit 139552
Requeued flit 177480
Requeued flit 150143
Requeued flit 162570
Requeued flit 144246
Requeued flit 159941
Requeued flit 171126
Requeued flit 175986
Requeued flit 176510
Requeued flit 87371
Requeued flit 170850
Requeued flit 110415
Requeued flit 146894
Requeued flit 115417
Requeued flit 109133
Requeued flit 136310
Requeued flit 164462
Requeued flit 127538
Requeued flit 178297
Requeued flit 145216
Requeued flit 120718
Requeued flit 177673
Requeued flit 156316
Requeued flit 86596
Requeued flit 138118
Requeued flit 86692
Requeued flit 110671
Requeued flit 149970
Requeued flit 166841
Requeued flit 111222
Requeued flit 181080
Requeued flit 158993
Requeued flit 161518
Requeued flit 82167
Requeued flit 119287
Requeued flit 168136
Requeued flit 137775
Requeued flit 160930
Requeued flit 158458
Requeued flit 130752
Requeued flit 98524
Requeued flit 98227
Requeued flit 155921
Requeued flit 93805
Requeued flit 120624
Requeued flit 177756
Requeued flit 158866
3878 | node28 | Enqueuing flit 192022 (packet 192022) at time 3878.
3878 | traffic_manager | Finding output VC for flit 192022:
3878 | traffic_manager |   Selected output VC 1.
3878 | network_0/router_3_4 | Adding VC range [0,1] at output port 2 for flit 192022 (input port 4, destination 44).
3878 | node28 | Generating lookahead routing info for flit 192022.
3878 | node28 | Injecting flit 192022 into subnet 0 at time 3878 with priority 0.
3879 | network_0/network_0_fchan_ingress28 | Beginning channel traversal for flit 192022 with delay 1.
3879 | network_0/network_0_fchan_ingress28 | Completed channel traversal for flit 192022.
3880 | network_0/router_3_4 | Received flit 192022 from channel at input 4.
3880 | network_0/router_3_4 | Adding flit 192022 to VC 1 at input 4 (state: active, front: 191933).
Requeued flit 154680
Requeued flit 151528
3882 | network_0/router_3_4 | Using precomputed lookahead routing information for VC 1 at input 4 (front: 192022).
3882 | network_0/router_3_4/buf_4/vc_1 | Changing state from active to vc_alloc.
3882 | network_0/router_3_4 | Beginning VC allocation for VC 1 at input 4 (front: 192022).
3882 | network_0/router_3_4 |   Requesting VC 0 at output 2 (in_pri: 0, out_pri: 0).
3882 | network_0/router_3_4 |   Requesting VC 1 at output 2 (in_pri: 0, out_pri: 0).
3882 | network_0/router_3_4/vc_allocator | Input requests = [ 0 -> [ 3@0 ]  4 -> [ 7@0 ]  8 -> [ 3@0 ]  9 -> [ 4@0 5@0 ]  ], output requests = [ 3 -> [ 0@0 8@0 ]  4 -> [ 9@0 ]  5 -> [ 9@0 ]  7 -> [ 4@0 ]  ].
3882 | network_0/router_3_4/vc_allocator | Input grants = [ 0 -> 3  4 -> 7  9 -> 4  ], output grants = [ 3 -> 0  4 -> 9  7 -> 4  ].
3882 | network_0/router_3_4 | Assigning VC 0 at output 2 to VC 1 at input 4.
3882 | network_0/router_3_4 | Completed VC allocation for VC 1 at input 4 (front: 192022).
3882 | network_0/router_3_4 |   Acquiring assigned VC 0 at output 2.
3882 | network_0/router_3_4/buf_4/vc_1 | Changing state from vc_alloc to active.
3883 | network_0/router_3_4 | Beginning switch allocation for VC 1 at input 4 (front: 192022).
3883 | network_0/router_3_4 |   Requesting output 2.0 (non-spec, pri: 0).
3883 | network_0/router_3_4/sw_allocator | Input requests = [ 0 -> [ 1@0 ]  2 -> [ 3@0 ]  4 -> [ 2@0 ]  ], output requests = [ 1 -> [ 0@0 ]  2 -> [ 4@0 ]  3 -> [ 2@0 ]  ].
3883 | network_0/router_3_4/sw_allocator | Input grants = [ 0 -> 1  2 -> 3  4 -> 2  ], output grants = [ 1 -> 0  2 -> 4  3 -> 2  ].
3883 | network_0/router_3_4 | Assigning output 2.0 to VC 1 at input 4.0.
3883 | network_0/router_3_4 | Completed switch allocation for VC 1 at input 4 (front: 192022).
3883 | network_0/router_3_4 |   Scheduling switch connection from input 4.0 to output 2.0.
3883 | network_0/router_3_4 | Updating lookahead routing information for flit 192022.
3883 | network_0/router_4_4 | Adding VC range [0,1] at output port 2 for flit 192022 (input port 3, destination 44).
3883 | network_0/router_3_4 | Beginning crossbar traversal for flit 192022 from input 4.0 to output 2.0.
3883 | network_0/router_3_4 | Completed crossbar traversal for flit 192022 from input 4.0 to output 2.0.
3883 | network_0/router_3_4 | Buffering flit 192022 at output 2.
Requeued flit 161482
Requeued flit 182212
Requeued flit 191926
Requeued flit 150877
Requeued flit 170353
Requeued flit 153667
Requeued flit 87894
Requeued flit 171107
Requeued flit 148137
Requeued flit 132686
Requeued flit 165577
Requeued flit 150004
Requeued flit 173608
Requeued flit 131256
Requeued flit 124531
Requeued flit 141950
Requeued flit 143733
Requeued flit 88815
Requeued flit 94170
Requeued flit 166193
Requeued flit 180202
Requeued flit 126092
Requeued flit 154194
Requeued flit 98053
Requeued flit 94217
Requeued flit 95416
Requeued flit 188186
Requeued flit 176104
Requeued flit 118590
Requeued flit 94701
Requeued flit 93040
Requeued flit 178804
Requeued flit 153910
Requeued flit 128899
Requeued flit 177935
Requeued flit 139384
Requeued flit 150474
Requeued flit 139784
Requeued flit 95095
Requeued flit 120808
Requeued flit 180849
Requeued flit 194096
Requeued flit 125136
Requeued flit 161844
4141 | network_0/router_3_4 | Sending flit 192022 to channel at output 2.
4142 | network_0/network_0_fchan_114 | Beginning channel traversal for flit 192022 with delay 1.
Requeued flit 178148
4142 | network_0/network_0_fchan_114 | Completed channel traversal for flit 192022.
4143 | network_0/router_4_4 | Received flit 192022 from channel at input 3.
4143 | network_0/router_4_4 | Adding flit 192022 to VC 0 at input 3 (state: idle, empty).
4143 | network_0/router_4_4 | Using precomputed lookahead routing information for VC 0 at input 3 (front: 192022).
4143 | network_0/router_4_4/buf_3/vc_0 | Changing state from idle to vc_alloc.
4143 | network_0/router_4_4 | Beginning VC allocation for VC 0 at input 3 (front: 192022).
4143 | network_0/router_4_4 |   Requesting VC 0 at output 2 (in_pri: 0, out_pri: 0).
4143 | network_0/router_4_4 |   VC 1 at output 2 is in use by VC 0 at input 0 (front flit: 164673).
4143 | network_0/router_4_4/vc_allocator | Input requests = [ 3 -> [ 0@0 1@0 ]  6 -> [ 4@0 ]  ], output requests = [ 0 -> [ 3@0 ]  1 -> [ 3@0 ]  4 -> [ 6@0 ]  ].
4143 | network_0/router_4_4/vc_allocator | Input grants = [ 3 -> 0  6 -> 4  ], output grants = [ 0 -> 3  4 -> 6  ].
4143 | network_0/router_4_4 | Assigning VC 0 at output 2 to VC 0 at input 3.
4143 | network_0/router_4_4 | Completed VC allocation for VC 0 at input 3 (front: 192022).
4143 | network_0/router_4_4 |   Acquiring assigned VC 0 at output 2.
4143 | network_0/router_4_4/buf_3/vc_0 | Changing state from vc_alloc to active.
4143 | network_0/router_4_4 | Beginning switch allocation for VC 0 at input 3 (front: 192022).
4143 | network_0/router_4_4 |   Requesting output 2.0 (non-spec, pri: 0).
4143 | network_0/router_4_4/sw_allocator | Input requests = [ 1 -> [ 0@0 ]  3 -> [ 2@0 ]  ], output requests = [ 0 -> [ 1@0 ]  2 -> [ 3@0 ]  ].
4143 | network_0/router_4_4/sw_allocator | Input grants = [ 1 -> 0  3 -> 2  ], output grants = [ 0 -> 1  2 -> 3  ].
4143 | network_0/router_4_4 | Assigning output 2.0 to VC 0 at input 3.0.
4143 | network_0/router_4_4 | Completed switch allocation for VC 0 at input 3 (front: 192022).
4143 | network_0/router_4_4 |   Scheduling switch connection from input 3.0 to output 2.0.
4143 | network_0/router_4_4 | Updating lookahead routing information for flit 192022.
4143 | network_0/router_5_4 | Adding VC range [0,1] at output port 4 for flit 192022 (input port 3, destination 44).
Requeued flit 174043
4144 | network_0/router_4_4 | Beginning crossbar traversal for flit 192022 from input 3.0 to output 2.0.
4144 | network_0/router_4_4 | Completed crossbar traversal for flit 192022 from input 3.0 to output 2.0.
4144 | network_0/router_4_4 | Buffering flit 192022 at output 2.
4147 | network_0/router_4_4 | Sending flit 192022 to channel at output 2.
4148 | network_0/network_0_fchan_146 | Beginning channel traversal for flit 192022 with delay 1.
Requeued flit 118848
4148 | network_0/network_0_fchan_146 | Completed channel traversal for flit 192022.
4149 | network_0/router_5_4 | Received flit 192022 from channel at input 3.
4149 | network_0/router_5_4 | Adding flit 192022 to VC 0 at input 3 (state: idle, empty).
4149 | network_0/router_5_4 | Using precomputed lookahead routing information for VC 0 at input 3 (front: 192022).
4149 | network_0/router_5_4/buf_3/vc_0 | Changing state from idle to vc_alloc.
4149 | network_0/router_5_4 | Beginning VC allocation for VC 0 at input 3 (front: 192022).
4149 | network_0/router_5_4 |   Requesting VC 0 at output 4 (in_pri: 0, out_pri: 0).
4149 | network_0/router_5_4 |   Requesting VC 1 at output 4 (in_pri: 0, out_pri: 0).
4149 | network_0/router_5_4/vc_allocator | Input requests = [ 2 -> [ 0@0 ]  5 -> [ 6@0 7@0 ]  6 -> [ 8@0 9@0 ]  8 -> [ 0@0 ]  ], output requests = [ 0 -> [ 2@0 8@0 ]  6 -> [ 5@0 ]  7 -> [ 5@0 ]  8 -> [ 6@0 ]  9 -> [ 6@0 ]  ].
4149 | network_0/router_5_4/vc_allocator | Input grants = [ 5 -> 7  6 -> 8  8 -> 0  ], output grants = [ 0 -> 8  7 -> 5  8 -> 6  ].
4149 | network_0/router_5_4 | Assigning VC 0 at output 4 to VC 0 at input 3.
4149 | network_0/router_5_4 | Completed VC allocation for VC 0 at input 3 (front: 192022).
4149 | network_0/router_5_4 |   Acquiring assigned VC 0 at output 4.
4149 | network_0/router_5_4/buf_3/vc_0 | Changing state from vc_alloc to active.
4149 | network_0/router_5_4 | Beginning switch allocation for VC 0 at input 3 (front: 192022).
4149 | network_0/router_5_4 |   Requesting output 4.0 (non-spec, pri: 0).
4149 | network_0/router_5_4/sw_allocator | Input requests = [ 2 -> [ 3@0 ]  3 -> [ 4@0 ]  4 -> [ 0@0 ]  ], output requests = [ 0 -> [ 4@0 ]  3 -> [ 2@0 ]  4 -> [ 3@0 ]  ].
4149 | network_0/router_5_4/sw_allocator | Input grants = [ 2 -> 3  3 -> 4  4 -> 0  ], output grants = [ 0 -> 4  3 -> 2  4 -> 3  ].
4149 | network_0/router_5_4 | Assigning output 4.0 to VC 0 at input 3.0.
4149 | network_0/router_5_4 | Completed switch allocation for VC 0 at input 3 (front: 192022).
4149 | network_0/router_5_4 |   Scheduling switch connection from input 3.0 to output 4.0.
4150 | network_0/router_5_4 | Beginning crossbar traversal for flit 192022 from input 3.0 to output 4.0.
4150 | network_0/router_5_4 | Completed crossbar traversal for flit 192022 from input 3.0 to output 4.0.
4150 | network_0/router_5_4 | Buffering flit 192022 at output 4.
4150 | network_0/router_5_4 | Sending flit 192022 to channel at output 4.
4151 | network_0/network_0_fchan_egress44 | Beginning channel traversal for flit 192022 with delay 1.
4151 | network_0/network_0_fchan_egress44 | Completed channel traversal for flit 192022.
4152 | node44 | Ejecting flit 192022 (packet 192022) from VC 0.
4152 | node44 | Injecting credit for VC 0 into subnet 0.
4152 | node44 | Retiring flit 192022 (packet 192022, src = 28, dest = 44, hops = 3, flat = 274).
4152 | node44 | Retiring packet 192022 (plat = 274, nlat = 274, frag = 0, src = 28, dest = 44).
Requeued flit 112447
Requeued flit 193513
Requeued flit 131079
Requeued flit 175944
Requeued flit 197833
Requeued flit 176867
Requeued flit 147629
Requeued flit 113299
Requeued flit 145871
Requeued flit 136209
Requeued flit 153315
Requeued flit 146546
Requeued flit 176208
Requeued flit 146462
Requeued flit 136254
Requeued flit 144855
Requeued flit 180862
Requeued flit 193245
Requeued flit 93535
Requeued flit 185050
Requeued flit 124152
Requeued flit 174580
Requeued flit 199613
Requeued flit 174839
Requeued flit 137593
Requeued flit 178569
Requeued flit 141535
Requeued flit 202887
Requeued flit 145331
Requeued flit 166977
Requeued flit 188765
Requeued flit 200469
Requeued flit 146159
Requeued flit 205545
Requeued flit 185145
Requeued flit 125497
Requeued flit 201390
Requeued flit 177879
Requeued flit 186079
Requeued flit 135189
Requeued flit 189380
Requeued flit 203338
Requeued flit 146735
Requeued flit 98790
Requeued flit 206467
Requeued flit 179673
Requeued flit 198189
Requeued flit 166288
Requeued flit 212425
Requeued flit 188309
Requeued flit 192232
Requeued flit 177135
Requeued flit 154820
Requeued flit 187052
Requeued flit 196008
Requeued flit 177135
Requeued flit 130312
Requeued flit 146777
Requeued flit 150031
Requeued flit 208647
Requeued flit 151044
Requeued flit 205782
Requeued flit 185806
Requeued flit 155108
Requeued flit 170239
Requeued flit 190012
Requeued flit 180146
Requeued flit 183333
Requeued flit 146904
Requeued flit 145023
Requeued flit 207315
Requeued flit 150667
Requeued flit 154817
Requeued flit 159245
Requeued flit 130714
Requeued flit 150886
Requeued flit 106455
Requeued flit 177547
Requeued flit 161789
Requeued flit 152207
Requeued flit 148375
Requeued flit 153715
Requeued flit 190494
Requeued flit 191396
Requeued flit 147124
Requeued flit 163502
Requeued flit 160167
Requeued flit 97838
Requeued flit 140364
Requeued flit 156607
Requeued flit 102844
Requeued flit 204400
Requeued flit 191605
Requeued flit 109704
Requeued flit 106871
Requeued flit 175926
Requeued flit 158473
Requeued flit 212611
Requeued flit 182600
Requeued flit 184178
Requeued flit 202821
Requeued flit 198035
Requeued flit 162642
Requeued flit 216180
Requeued flit 206728
Requeued flit 154396
Requeued flit 136605
Requeued flit 207283
Requeued flit 156465
Requeued flit 135187
Requeued flit 161694
Requeued flit 207993
Requeued flit 114291
Requeued flit 218704
Requeued flit 217752
Requeued flit 186881
Requeued flit 208334
Requeued flit 200990
Requeued flit 195679
Requeued flit 115957
Requeued flit 192234
Requeued flit 202394
Requeued flit 209708
Requeued flit 200875
Requeued flit 130842
Requeued flit 197120
Requeued flit 205930
Requeued flit 109877
Requeued flit 217260
Requeued flit 155435
Requeued flit 210363
Requeued flit 206904
Requeued flit 155726
Requeued flit 93416
Requeued flit 93416
Requeued flit 198963
Requeued flit 228233
Requeued flit 113155
Requeued flit 222078
Requeued flit 190483
Requeued flit 221217
Requeued flit 212686
Requeued flit 188948
Requeued flit 150306
Requeued flit 223176
Requeued flit 213221
Requeued flit 105291
Requeued flit 198574
Requeued flit 105160
Requeued flit 165822
Requeued flit 207739
Requeued flit 214111
Requeued flit 166560
Requeued flit 168063
Requeued flit 137537
Requeued flit 198028
Requeued flit 226722
Requeued flit 214903
Requeued flit 191455
Requeued flit 170531
Requeued flit 119133
Requeued flit 205229
Requeued flit 174572
Requeued flit 178447
Requeued flit 210070
Requeued flit 195881
Requeued flit 190425
Requeued flit 212687
Requeued flit 208653
Requeued flit 223655
Requeued flit 170359
Requeued flit 227911
Requeued flit 201754
Requeued flit 193123
Requeued flit 161071
Requeued flit 170203
Requeued flit 119299
Requeued flit 211667
Requeued flit 124042
Requeued flit 212530
Requeued flit 135585
Requeued flit 229426
Requeued flit 219119
Requeued flit 132225
Requeued flit 231718
Requeued flit 120352
Requeued flit 110369
Requeued flit 221117
Requeued flit 211937
Requeued flit 214274
Requeued flit 214665
Requeued flit 188577
Requeued flit 230828
Requeued flit 221161
Requeued flit 179368
Requeued flit 221797
Requeued flit 222074
Requeued flit 222344
Requeued flit 216378
Requeued flit 171379
Requeued flit 143407
Requeued flit 191263
Requeued flit 166934
Requeued flit 181652
Requeued flit 179389
Requeued flit 113013
Requeued flit 165801
Requeued flit 201731
Requeued flit 231508
Requeued flit 119772
Requeued flit 109190
Requeued flit 216085
Requeued flit 203203
Requeued flit 115182
Requeued flit 194517
Requeued flit 143562
Requeued flit 237546
Requeued flit 235304
Requeued flit 226697
Requeued flit 207902
Requeued flit 114920
Requeued flit 176116
Requeued flit 113719
Requeued flit 236299
Requeued flit 213009
Requeued flit 227647
Requeued flit 227466
Requeued flit 213092
Requeued flit 235929
Requeued flit 219214
Requeued flit 214504
Requeued flit 216678
Requeued flit 182196
Requeued flit 172152
Requeued flit 219369
Requeued flit 216185
Requeued flit 177716
Requeued flit 229094
Requeued flit 204079
Requeued flit 219704
Requeued flit 220072
Requeued flit 229315
Requeued flit 215357
Requeued flit 217911
Requeued flit 188185
Requeued flit 145008
Requeued flit 230338
Requeued flit 241180
Requeued flit 183625
Requeued flit 210425
Requeued flit 218245
Requeued flit 188672
Requeued flit 173144
Requeued flit 143246
Requeued flit 221137
Requeued flit 197134
Requeued flit 223819
Requeued flit 169108
Requeued flit 220655
Requeued flit 238380
Requeued flit 206001
Requeued flit 187351
Requeued flit 150779
Requeued flit 204991
Requeued flit 177621
Requeued flit 238542
Requeued flit 128819
Requeued flit 223996
Requeued flit 233256
Requeued flit 226890
Requeued flit 224751
Requeued flit 204978
Requeued flit 188432
Requeued flit 221674
Requeued flit 204497
Requeued flit 242976
Requeued flit 177712
Requeued flit 234517
Requeued flit 195744
Requeued flit 205293
Requeued flit 117715
Requeued flit 125976
Requeued flit 184329
Requeued flit 116678
Requeued flit 196316
Requeued flit 210052
Requeued flit 226837
Requeued flit 227560
Requeued flit 165836
Requeued flit 223925
Requeued flit 223582
Requeued flit 244452
Requeued flit 213732
Requeued flit 182607
Requeued flit 215813
Requeued flit 243372
Requeued flit 206643
Requeued flit 119428
Requeued flit 223850
Requeued flit 227694
Requeued flit 118409
Requeued flit 245003
Requeued flit 169653
Requeued flit 238049
Requeued flit 226208
Requeued flit 204115
Requeued flit 133438
Requeued flit 199116
Requeued flit 233825
Requeued flit 238803
Requeued flit 216288
Requeued flit 186818
Requeued flit 230822
Requeued flit 174618
Requeued flit 229626
Requeued flit 226175
Requeued flit 211047
Requeued flit 240132
Requeued flit 182282
Requeued flit 128999
Requeued flit 247259
Requeued flit 188839
Requeued flit 229907
Requeued flit 126440
Requeued flit 234755
Requeued flit 134268
Requeued flit 247814
Requeued flit 160428
Requeued flit 198721
Requeued flit 232158
Requeued flit 160205
Requeued flit 245476
Requeued flit 209746
Requeued flit 197734
Requeued flit 234992
Requeued flit 223996
Requeued flit 110797
Requeued flit 230349
Requeued flit 197088
Requeued flit 163148
Requeued flit 243899
Requeued flit 200286
Requeued flit 130087
Requeued flit 236207
Requeued flit 131252
Requeued flit 128427
Requeued flit 231404
Requeued flit 245070
Requeued flit 234614
Requeued flit 200570
Requeued flit 253364
Requeued flit 205475
Requeued flit 133149
Requeued flit 157141
Requeued flit 232852
Requeued flit 200380
Requeued flit 233351
Requeued flit 253699
Requeued flit 155600
Requeued flit 160944
Requeued flit 162275
Requeued flit 175416
Requeued flit 209054
Requeued flit 242460
Requeued flit 128422
Requeued flit 206167
Requeued flit 145397
Requeued flit 128277
Requeued flit 186411
Requeued flit 240486
Requeued flit 198496
Requeued flit 206614
Requeued flit 225512
Requeued flit 189870
Requeued flit 206268
Requeued flit 265189
Requeued flit 198421
Requeued flit 241372
Requeued flit 238856
Requeued flit 241674
Requeued flit 238603
Requeued flit 250040
Requeued flit 249905
Requeued flit 237755
Requeued flit 203453
Requeued flit 242852
Requeued flit 127001
Requeued flit 181556
Requeued flit 195454
Requeued flit 239093
Requeued flit 207082
Requeued flit 202676
Requeued flit 260287
Requeued flit 252292
Requeued flit 260677
Requeued flit 132704
Requeued flit 206820
Requeued flit 212143
Requeued flit 181604
Requeued flit 213832
Requeued flit 206405
Requeued flit 213530
Requeued flit 262424
Requeued flit 243260
Requeued flit 242255
Requeued flit 246569
Requeued flit 262939
Requeued flit 271393
Requeued flit 223662
Requeued flit 139090
Requeued flit 255980
Requeued flit 221716
Requeued flit 136513
Requeued flit 261958
Requeued flit 256895
Requeued flit 224988
Requeued flit 247100
Requeued flit 129968
Requeued flit 265874
Requeued flit 175115
Requeued flit 216636
Requeued flit 229973
Requeued flit 189878
Requeued flit 244803
Requeued flit 248806
Requeued flit 212471
Requeued flit 274337
Requeued flit 246492
Requeued flit 266691
Requeued flit 142749
Requeued flit 264738
Requeued flit 225593
Requeued flit 249994
Requeued flit 148418
Requeued flit 221870
Requeued flit 246872
Requeued flit 141641
Requeued flit 156923
Requeued flit 212663
Requeued flit 226943
Requeued flit 260536
Requeued flit 250129
Requeued flit 205191
Requeued flit 207970
Requeued flit 250948
Requeued flit 221139
Requeued flit 224202
Requeued flit 271072
Requeued flit 267922
Requeued flit 136293
Requeued flit 201358
Requeued flit 269041
Requeued flit 209170
Requeued flit 270251
Requeued flit 165697
Requeued flit 269099
Requeued flit 224405
Requeued flit 187008
Requeued flit 253741
Requeued flit 210923
Requeued flit 253097
Requeued flit 125998
Requeued flit 210093
Requeued flit 256388
Requeued flit 227631
Requeued flit 270448
Requeued flit 251962
Requeued flit 185997
Requeued flit 250970
Requeued flit 224927
Requeued flit 253445
Requeued flit 226089
Requeued flit 139097
Requeued flit 142631
Requeued flit 226312
Requeued flit 272049
Requeued flit 263387
Requeued flit 154082
Requeued flit 259033
Requeued flit 217632
Requeued flit 205976
Requeued flit 207916
Requeued flit 270484
Requeued flit 149030
Requeued flit 257817
Requeued flit 221276
Requeued flit 234837
Requeued flit 206007
Requeued flit 256480
Requeued flit 139596
Requeued flit 165966
Requeued flit 210755
Requeued flit 245227
Requeued flit 209845
Requeued flit 259703
Requeued flit 138025
Requeued flit 149714
Requeued flit 217738
Requeued flit 143391
Requeued flit 229838
Requeued flit 136365
Requeued flit 274580
Requeued flit 258464
Requeued flit 139498
Requeued flit 277862
Requeued flit 287939
Requeued flit 221557
Requeued flit 262824
Requeued flit 226598
Requeued flit 180146
Requeued flit 217497
Requeued flit 189013
Requeued flit 152373
Requeued flit 265917
Requeued flit 235865
Requeued flit 260634
Requeued flit 146694
Requeued flit 267046
Requeued flit 273278
Requeued flit 262262
Requeued flit 280288
Requeued flit 274986
Requeued flit 217077
Requeued flit 275494
Requeued flit 147881
Requeued flit 264415
Requeued flit 275548
Requeued flit 141365
Requeued flit 280404
Requeued flit 236492
Requeued flit 252270
Requeued flit 281626
Requeued flit 276388
Requeued flit 282371
Requeued flit 216108
Requeued flit 153413
Requeued flit 292406
Requeued flit 276606
Requeued flit 198437
Requeued flit 268482
Requeued flit 283122
Requeued flit 264388
Requeued flit 218635
Requeued flit 218255
Requeued flit 278105
Requeued flit 238110
Requeued flit 282118
Requeued flit 267738
Requeued flit 282846
Requeued flit 295013
Requeued flit 286267
Requeued flit 229325
Requeued flit 264776
Requeued flit 224040
Requeued flit 247534
Requeued flit 188041
Requeued flit 266527
Requeued flit 266892
Requeued flit 286175
Requeued flit 170323
Requeued flit 266150
Requeued flit 243846
Requeued flit 147932
Requeued flit 225206
Requeued flit 285853
Requeued flit 151454
Requeued flit 245784
Requeued flit 212624
Requeued flit 181132
Requeued flit 288796
Requeued flit 243904
Requeued flit 171463
Requeued flit 267669
Requeued flit 287546
Requeued flit 233583
Requeued flit 235570
Requeued flit 286399
Requeued flit 229551
Requeued flit 230040
Requeued flit 271492
Requeued flit 290325
Requeued flit 243039
Requeued flit 270832
Requeued flit 284482
Requeued flit 275825
Requeued flit 146893
Requeued flit 292381
Requeued flit 272449
Requeued flit 248767
Requeued flit 235872
Requeued flit 277742
Requeued flit 276394
Requeued flit 158252
Requeued flit 290256
Requeued flit 264140
Requeued flit 277540
Requeued flit 236984
Requeued flit 230265
Requeued flit 279899
Requeued flit 277280
Requeued flit 257869
Requeued flit 156326
Requeued flit 274819
Requeued flit 276339
Requeued flit 157366
Requeued flit 294645
Requeued flit 227766
Requeued flit 142116
Requeued flit 296839
Requeued flit 147127
Requeued flit 216068
Requeued flit 278621
Requeued flit 148490
Requeued flit 227480
Requeued flit 255788
Requeued flit 292207
Requeued flit 162039
Requeued flit 228425
Requeued flit 163703
Requeued flit 280253
Requeued flit 255412
Requeued flit 257807
Requeued flit 154491
Requeued flit 232030
Requeued flit 290727
Requeued flit 220375
Requeued flit 301692
Requeued flit 298238
Requeued flit 289468
Requeued flit 150969
Requeued flit 258415
Requeued flit 255975
Requeued flit 254960
Requeued flit 148291
Requeued flit 178288
Requeued flit 245042
Requeued flit 273524
Requeued flit 301908
Requeued flit 283632
Requeued flit 181374
Requeued flit 296459
Requeued flit 300561
Requeued flit 199826
Requeued flit 294163
Requeued flit 262753
Requeued flit 300858
Requeued flit 287018
Requeued flit 279144
Requeued flit 261127
Requeued flit 177422
Requeued flit 227285
Requeued flit 261536
Requeued flit 300151
Requeued flit 239754
Requeued flit 305982
Requeued flit 195994
Requeued flit 286045
Requeued flit 243962
Requeued flit 290014
Requeued flit 225253
Requeued flit 291776
Requeued flit 266956
Requeued flit 165558
Requeued flit 263064
Requeued flit 166068
Requeued flit 211306
Requeued flit 263580
Requeued flit 280663
Requeued flit 244430
Requeued flit 169608
Requeued flit 162670
Requeued flit 263958
Requeued flit 293644
Requeued flit 159441
Requeued flit 173708
Requeued flit 291050
Requeued flit 292797
Requeued flit 227029
Requeued flit 289983
Requeued flit 241503
Requeued flit 172169
Requeued flit 286336
Requeued flit 306977
Requeued flit 266371
Requeued flit 295088
Requeued flit 305281
Requeued flit 267910
Requeued flit 321715
Requeued flit 172405
Requeued flit 295750
Requeued flit 246052
Requeued flit 294012
Requeued flit 211213
Requeued flit 306206
Requeued flit 285532
Requeued flit 173109
Requeued flit 306345
Requeued flit 200388
Requeued flit 292885
Requeued flit 194493
Requeued flit 289205
Requeued flit 315373
Requeued flit 159811
Requeued flit 245689
Requeued flit 296547
Requeued flit 272158
Requeued flit 323438
Requeued flit 294696
Requeued flit 243018
Requeued flit 294851
Requeued flit 244483
Requeued flit 296649
Requeued flit 298424
Requeued flit 298815
Requeued flit 167758
Requeued flit 272509
Requeued flit 270931
Requeued flit 309296
Requeued flit 314941
Requeued flit 211517
Requeued flit 257298
Requeued flit 289285
Requeued flit 214561
Requeued flit 292893
Requeued flit 310125
Requeued flit 312390
Requeued flit 311277
Requeued flit 316511
Requeued flit 188128
Requeued flit 326602
Requeued flit 288709
Requeued flit 283549
Requeued flit 180127
Requeued flit 254931
Requeued flit 310702
Requeued flit 307650
Requeued flit 268465
Requeued flit 276033
Requeued flit 176519
Requeued flit 263330
Requeued flit 299875
Requeued flit 275610
Requeued flit 311672
Requeued flit 255511
Requeued flit 276183
Requeued flit 289358
Requeued flit 312317
Requeued flit 277492
Requeued flit 303544
Requeued flit 267803
Requeued flit 303894
Requeued flit 313367
Requeued flit 249593
Requeued flit 307661
Requeued flit 171400
Requeued flit 317581
Requeued flit 304174
Requeued flit 305454
Requeued flit 242549
Requeued flit 314865
Requeued flit 317833
Requeued flit 266208
Requeued flit 305480
Requeued flit 242844
Requeued flit 279270
Requeued flit 255705
Requeued flit 332678
Requeued flit 221195
Requeued flit 307068
Requeued flit 271083
Requeued flit 178443
Requeued flit 279116
Requeued flit 322988
Requeued flit 308242
Requeued flit 317268
Requeued flit 318210
Requeued flit 285620
Requeued flit 300648
Requeued flit 316663
Requeued flit 272162
Requeued flit 322391
Requeued flit 258743
Requeued flit 222615
Requeued flit 310855
Requeued flit 187613
Requeued flit 306380
Requeued flit 198977
Requeued flit 325667
Requeued flit 188832
Requeued flit 275238
Requeued flit 192387
Requeued flit 308017
Requeued flit 309706
Requeued flit 329010
Requeued flit 323783
Requeued flit 323512
Requeued flit 308241
Requeued flit 256615
Requeued flit 270388
Requeued flit 254026
Requeued flit 284853
Requeued flit 173917
Requeued flit 181056
Requeued flit 312105
Requeued flit 289876
Requeued flit 309763
Requeued flit 288656
Requeued flit 325777
Requeued flit 285132
Requeued flit 330717
Requeued flit 327780
Requeued flit 310246
Requeued flit 166441
Requeued flit 225869
Requeued flit 327417
Requeued flit 199582
Requeued flit 314809
Requeued flit 273675
Requeued flit 201760
Requeued flit 291648
Requeued flit 289571
Requeued flit 325284
Requeued flit 265327
Requeued flit 311708
Requeued flit 331419
Requeued flit 325121
Requeued flit 228426
Requeued flit 331391
Requeued flit 325659
Requeued flit 318340
Requeued flit 320766
Requeued flit 287898
Requeued flit 313143
Requeued flit 313059
Requeued flit 307452
Requeued flit 291270
Requeued flit 258427
Requeued flit 327063
Requeued flit 316784
Requeued flit 313136
Requeued flit 227682
Requeued flit 318383
Requeued flit 267234
Requeued flit 279233
Requeued flit 318435
Requeued flit 270046
Requeued flit 206031
Requeued flit 290579
Requeued flit 205526
Requeued flit 310594
Requeued flit 332244
Requeued flit 318805
Requeued flit 253429
Requeued flit 166081
Requeued flit 330761
Requeued flit 335667
Requeued flit 298962
Requeued flit 331293
Requeued flit 330990
Requeued flit 312457
Requeued flit 252926
Requeued flit 269804
Requeued flit 320924
Requeued flit 264398
Requeued flit 320813
Requeued flit 333891
Requeued flit 294549
Requeued flit 336952
Requeued flit 321657
Requeued flit 236829
Requeued flit 230372
Requeued flit 334200
Requeued flit 282124
Requeued flit 295679
Requeued flit 334948
Requeued flit 252059
Requeued flit 320249
Requeued flit 272849
Requeued flit 268484
Requeued flit 234565
Requeued flit 318937
Requeued flit 321843
Requeued flit 321930
Requeued flit 173712
Requeued flit 292453
Requeued flit 299149
Requeued flit 307143
Requeued flit 341698
Requeued flit 336985
Requeued flit 264761
Requeued flit 170818
Requeued flit 325326
Requeued flit 180128
Requeued flit 324632
Requeued flit 270791
Requeued flit 338008
Requeued flit 354389
Requeued flit 211160
Requeued flit 326454
Requeued flit 244521
Requeued flit 342676
Requeued flit 323494
Requeued flit 266037
Requeued flit 186325
Requeued flit 324356
Requeued flit 302270
Requeued flit 177107
Requeued flit 177128
Requeued flit 337430
Requeued flit 324363
Requeued flit 340048
Requeued flit 340329
Requeued flit 340517
Requeued flit 326387
Requeued flit 342068
Requeued flit 275996
Requeued flit 304338
Requeued flit 341195
Requeued flit 178859
Requeued flit 305661
Requeued flit 226485
Requeued flit 330315
Requeued flit 328287
Requeued flit 327060
Requeued flit 246121
Requeued flit 345617
Requeued flit 330045
Requeued flit 303935
Requeued flit 302640
Requeued flit 292879
Requeued flit 342946
Requeued flit 344529
Requeued flit 274745
Requeued flit 348669
Requeued flit 330785
Requeued flit 345377
Requeued flit 344956
Requeued flit 216583
Requeued flit 347138
Requeued flit 281110
Requeued flit 214520
Requeued flit 329168
Requeued flit 296261
Requeued flit 333410
Requeued flit 309782
Requeued flit 308911
Requeued flit 202055
Requeued flit 305529
Requeued flit 275692
Requeued flit 282611
Requeued flit 363021
Requeued flit 347425
Requeued flit 296602
Requeued flit 297255
Requeued flit 213111
Requeued flit 348200
Requeued flit 339440
Requeued flit 271371
Requeued flit 313958
Requeued flit 343352
Requeued flit 286172
Requeued flit 355346
Requeued flit 334910
Requeued flit 228990
Requeued flit 321393
Requeued flit 212824
Requeued flit 335478
Requeued flit 337830
Requeued flit 191645
Requeued flit 338859
Requeued flit 188544
Requeued flit 357042
Requeued flit 301738
Requeued flit 349164
Requeued flit 253755
Requeued flit 350899
Requeued flit 337987
Requeued flit 338547
Requeued flit 340177
Requeued flit 245787
Requeued flit 316029
Requeued flit 338013
Requeued flit 354050
Requeued flit 338935
Requeued flit 350203
Requeued flit 280840
Requeued flit 290191
Requeued flit 182315
Requeued flit 318406
Requeued flit 190808
Requeued flit 304580
Requeued flit 190848
Requeued flit 350323
Requeued flit 341470
Requeued flit 307712
Requeued flit 356555
Requeued flit 344005
Requeued flit 186168
Requeued flit 284272
Requeued flit 355922
Requeued flit 261872
Requeued flit 371539
Requeued flit 345081
Requeued flit 288357
Requeued flit 341013
Requeued flit 296004
Requeued flit 195202
Requeued flit 296493
Requeued flit 320154
Requeued flit 357089
Requeued flit 357350
Requeued flit 346412
Requeued flit 345375
Requeued flit 246500
Requeued flit 290993
Requeued flit 345822
Requeued flit 358574
Requeued flit 358159
Requeued flit 343091
Requeued flit 322566
Requeued flit 344948
Requeued flit 359218
Requeued flit 346405
Requeued flit 347596
Requeued flit 348788
Requeued flit 332274
Requeued flit 341148
Requeued flit 320530
Requeued flit 360191
Requeued flit 363316
Requeued flit 253225
Requeued flit 342154
Requeued flit 364376
Requeued flit 235726
Requeued flit 296884
Requeued flit 222780
Requeued flit 350356
Requeued flit 246190
Requeued flit 364438
Requeued flit 304626
Requeued flit 347996
Requeued flit 233182
Requeued flit 350450
Requeued flit 363937
Requeued flit 337450
Requeued flit 353585
Requeued flit 370134
Requeued flit 195421
Requeued flit 229930
Requeued flit 328289
Requeued flit 242859
Requeued flit 327136
Requeued flit 350712
Requeued flit 239267
Requeued flit 335296
Requeued flit 353874
Requeued flit 371616
Requeued flit 353469
Requeued flit 354349
Requeued flit 294981
Requeued flit 330586
Requeued flit 305639
Requeued flit 203770
Requeued flit 330367
Requeued flit 366465
Requeued flit 193358
Requeued flit 368353
Requeued flit 358526
Requeued flit 285011
Requeued flit 359821
Requeued flit 231654
Requeued flit 309661
Requeued flit 375426
Requeued flit 369397
Requeued flit 240746
Requeued flit 270779
Requeued flit 309460
Requeued flit 355065
Requeued flit 371171
Requeued flit 385919
Requeued flit 307688
Requeued flit 359595
Requeued flit 336917
Requeued flit 295375
Requeued flit 360335
Requeued flit 371643
Requeued flit 334116
Requeued flit 334877
Requeued flit 363385
Requeued flit 373553
Requeued flit 252255
Requeued flit 363568
Requeued flit 267508
Requeued flit 361612
Requeued flit 322636
Requeued flit 374854
Requeued flit 374831
Requeued flit 376120
Requeued flit 376378
Requeued flit 377252
Requeued flit 363173
Requeued flit 324672
Requeued flit 363821
Requeued flit 349081
Requeued flit 376366
Class 0:
Packet latency average = 1421.86
	minimum = 5
	maximum = 6323
Network latency average = 1303.33
	minimum = 5
	maximum = 6323
Slowest packet = 182710
Flit latency average = 1303.33
	minimum = 5
	maximum = 6323
Slowest flit = 182710
Fragmentation average = 0
	minimum = 0
	maximum = 0
Injected packet rate average = 0.613834
	minimum = 0.4475 (at node 9)
	maximum = 0.8046 (at node 52)
Accepted packet rate average = 0.504437
	minimum = 0.486 (at node 21)
	maximum = 0.5223 (at node 14)
Injected flit rate average = 0.613834
	minimum = 0.4475 (at node 9)
	maximum = 0.8046 (at node 52)
Accepted flit rate average= 0.504437
	minimum = 0.486 (at node 21)
	maximum = 0.5223 (at node 14)
Injected packet length average = 1
Accepted packet length average = 1
Total in-flight flits = 70044 (0 measured)
latency change    = 1
throughput change = 1
Average latency for class 0 exceeded 500 cycles. Aborting simulation.
Too many sample periods needed to converge
Simulation unstable, ending ...
Total run time 101.016
