BEGIN Configuration File: examples/ecc_mesh88_config_0_0.800_packet_3
// $Id$

// Copyright (c) 2007-2015, Trustees of The Leland Stanford Junior University
// All rights reserved.
//
// Redistribution and use in source and binary forms, with or without
// modification, are permitted provided that the following conditions are met:
//
// Redistributions of source code must retain the above copyright notice, this
// list of conditions and the following disclaimer.
// Redistributions in binary form must reproduce the above copyright notice,
// this list of conditions and the following disclaimer in the documentation
// and/or other materials provided with the distribution.
//
// THIS SOFTWARE IS PROVIDED BY THE COPYRIGHT HOLDERS AND CONTRIBUTORS "AS IS"
// AND ANY EXPRESS OR IMPLIED WARRANTIES, INCLUDING, BUT NOT LIMITED TO, THE
// IMPLIED WARRANTIES OF MERCHANTABILITY AND FITNESS FOR A PARTICULAR PURPOSE
// ARE DISCLAIMED. IN NO EVENT SHALL THE COPYRIGHT OWNER OR CONTRIBUTORS BE
// LIABLE FOR ANY DIRECT, INDIRECT, INCIDENTAL, SPECIAL, EXEMPLARY, OR
// CONSEQUENTIAL DAMAGES (INCLUDING, BUT NOT LIMITED TO, PROCUREMENT OF
// SUBSTITUTE GOODS OR SERVICES; LOSS OF USE, DATA, OR PROFITS; OR BUSINESS
// INTERRUPTION) HOWEVER CAUSED AND ON ANY THEORY OF LIABILITY, WHETHER IN
// CONTRACT, STRICT LIABILITY, OR TORT (INCLUDING NEGLIGENCE OR OTHERWISE)
// ARISING IN ANY WAY OUT OF THE USE OF THIS SOFTWARE, EVEN IF ADVISED OF THE
// POSSIBILITY OF SUCH DAMAGE.

// Dragonfly
//




vc_buf_size = 256;


wait_for_tail_credit = 0;

//
// Router architecture
//
vc_allocator = separable_input_first; 
sw_allocator = separable_input_first;
alloc_iters  = 1;

credit_delay   = 2;
routing_delay  = 0;
vc_alloc_delay = 1;
sw_alloc_delay = 1;
st_final_delay = 1;

input_speedup     = 1;
output_speedup    = 1;
internal_speedup  = 2.0;


warmup_periods = 3;
sim_count          = 1;

sample_period  = 10000;  


routing_function = dor;
num_vcs     = 2;

priority = none;
traffic       = uniform; 

injection_rate = 0.8;
packet_size = 1;
injection_rate_uses_flits=1;

topology = mesh;

k  = 8;
n  = 2;

fer = 3;
ecc = link;
correctable = 0;

watch_out=-;
watch_file = watch.txt;

ecc = packet;

stats_out = examples/ecc_mesh88_config_0_0.800_packet_3.m;

END Configuration File: examples/ecc_mesh88_config_0_0.800_packet_3
Additional hops: 7
Adding flit 17 as NACK at time 24
Reenqueueing errored packet 17 at time 39
Additional hops: 12
Adding flit 1171 as NACK at time 41
Additional hops: 15
Adding flit 1269 as NACK at time 42
Additional hops: 20
Adding flit 764 as NACK at time 45
Reenqueueing errored packet 1269 at time 49
Reenqueueing errored packet 1171 at time 52
Additional hops: 29
Adding flit 785 as NACK at time 54
Additional hops: 33
Adding flit 1673 as NACK at time 54
Reenqueueing errored packet 764 at time 56
Additional hops: 40
Adding flit 1308 as NACK at time 62
Reenqueueing errored packet 1673 at time 63
Reenqueueing errored packet 785 at time 73
Additional hops: 42
Adding flit 3404 as NACK at time 75
Reenqueueing errored packet 1308 at time 77
Reenqueueing errored packet 3404 at time 80
Additional hops: 50
Adding flit 2392 as NACK at time 87
Additional hops: 55
Adding flit 2795 as NACK at time 88
Reenqueueing errored packet 2795 at time 99
Additional hops: 60
Adding flit 3342 as NACK at time 103
Reenqueueing errored packet 2392 at time 104
Additional hops: 67
Adding flit 3570 as NACK at time 104
Additional hops: 71
Adding flit 4243 as NACK at time 105
Additional hops: 79
Adding flit 2254 as NACK at time 112
Reenqueueing errored packet 4243 at time 114
Reenqueueing errored packet 3342 at time 114
Reenqueueing errored packet 3570 at time 119
Additional hops: 87
Adding flit 3208 as NACK at time 123
Reenqueueing errored packet 2254 at time 129
Additional hops: 95
Adding flit 2922 as NACK at time 131
Additional hops: 97
Adding flit 6364 as NACK at time 133
Reenqueueing errored packet 6364 at time 138
Reenqueueing errored packet 3208 at time 140
Additional hops: 103
Adding flit 4641 as NACK at time 140
Additional hops: 111
Adding flit 3416 as NACK at time 140
Reenqueueing errored packet 2922 at time 148
Additional hops: 115
Adding flit 4875 as NACK at time 148
Additional hops: 122
Adding flit 1987 as NACK at time 149
Additional hops: 129
Adding flit 2613 as NACK at time 150
Reenqueueing errored packet 4641 at time 153
Additional hops: 135
Adding flit 5566 as NACK at time 153
Reenqueueing errored packet 4875 at time 157
Reenqueueing errored packet 3416 at time 157
Additional hops: 141
Adding flit 6277 as NACK at time 159
Reenqueueing errored packet 1987 at time 164
Reenqueueing errored packet 2613 at time 165
Additional hops: 147
Adding flit 3933 as NACK at time 165
Additional hops: 157
Adding flit 2738 as NACK at time 165
Reenqueueing errored packet 5566 at time 166
Additional hops: 163
Adding flit 4678 as NACK at time 168
Additional hops: 170
Adding flit 5161 as NACK at time 169
Reenqueueing errored packet 6277 at time 172
Reenqueueing errored packet 3933 at time 178
Additional hops: 177
Adding flit 7247 as NACK at time 179
Reenqueueing errored packet 4678 at time 181
Reenqueueing errored packet 5161 at time 184
Reenqueueing errored packet 2738 at time 186
Additional hops: 187
Adding flit 4215 as NACK at time 191
Reenqueueing errored packet 7247 at time 194
Additional hops: 197
Adding flit 5129 as NACK at time 195
Additional hops: 205
Adding flit 4593 as NACK at time 195
Additional hops: 214
Adding flit 4997 as NACK at time 208
Reenqueueing errored packet 4593 at time 212
Reenqueueing errored packet 4215 at time 212
Reenqueueing errored packet 5129 at time 216
Additional hops: 222
Adding flit 5093 as NACK at time 218
Additional hops: 231
Adding flit 5697 as NACK at time 222
Reenqueueing errored packet 4997 at time 227
Reenqueueing errored packet 5093 at time 235
Additional hops: 236
Adding flit 9068 as NACK at time 235
Reenqueueing errored packet 5697 at time 241
Additional hops: 244
Adding flit 7178 as NACK at time 245
Reenqueueing errored packet 9068 at time 246
Additional hops: 254
Adding flit 5320 as NACK at time 246
Additional hops: 263
Adding flit 5754 as NACK at time 248
Reenqueueing errored packet 7178 at time 262
Additional hops: 269
Adding flit 7428 as NACK at time 266
Reenqueueing errored packet 5754 at time 267
Reenqueueing errored packet 5320 at time 267
Additional hops: 275
Adding flit 6669 as NACK at time 270
Reenqueueing errored packet 7428 at time 279
Additional hops: 284
Adding flit 5408 as NACK at time 279
Additional hops: 294
Adding flit 8958 as NACK at time 281
Additional hops: 299
Adding flit 9966 as NACK at time 281
Reenqueueing errored packet 6669 at time 283
Additional hops: 308
Adding flit 5762 as NACK at time 285
Additional hops: 312
Adding flit 13423 as NACK at time 286
Reenqueueing errored packet 9966 at time 292
Additional hops: 325
Adding flit 4181 as NACK at time 294
Reenqueueing errored packet 13423 at time 295
Additional hops: 332
Adding flit 10835 as NACK at time 296
Reenqueueing errored packet 5408 at time 298
Reenqueueing errored packet 8958 at time 302
Reenqueueing errored packet 5762 at time 304
Reenqueueing errored packet 10835 at time 311
Additional hops: 339
Adding flit 11928 as NACK at time 312
Additional hops: 345
Adding flit 11882 as NACK at time 316
Additional hops: 353
Adding flit 12397 as NACK at time 320
Additional hops: 357
Adding flit 14523 as NACK at time 320
Reenqueueing errored packet 4181 at time 321
Additional hops: 363
Adding flit 13424 as NACK at time 324
Additional hops: 371
Adding flit 10438 as NACK at time 325
Additional hops: 377
Adding flit 12244 as NACK at time 326
Reenqueueing errored packet 11928 at time 327
Reenqueueing errored packet 14523 at time 329
Reenqueueing errored packet 11882 at time 329
Reenqueueing errored packet 13424 at time 337
Reenqueueing errored packet 12397 at time 337
Reenqueueing errored packet 12244 at time 339
Additional hops: 386
Adding flit 6373 as NACK at time 341
Reenqueueing errored packet 10438 at time 342
Additional hops: 394
Adding flit 9235 as NACK at time 342
Additional hops: 399
Adding flit 13387 as NACK at time 344
Additional hops: 406
Adding flit 9537 as NACK at time 351
Additional hops: 409
Adding flit 14907 as NACK at time 352
Reenqueueing errored packet 13387 at time 355
Reenqueueing errored packet 14907 at time 359
Reenqueueing errored packet 9235 at time 359
Reenqueueing errored packet 6373 at time 360
Additional hops: 417
Adding flit 11696 as NACK at time 362
Reenqueueing errored packet 9537 at time 366
Additional hops: 426
Adding flit 12193 as NACK at time 367
Additional hops: 433
Adding flit 9073 as NACK at time 369
Additional hops: 439
Adding flit 9366 as NACK at time 371
Additional hops: 450
Adding flit 6502 as NACK at time 378
Reenqueueing errored packet 11696 at time 379
Additional hops: 459
Adding flit 12019 as NACK at time 383
Reenqueueing errored packet 9366 at time 384
Reenqueueing errored packet 9073 at time 384
Additional hops: 466
Adding flit 15301 as NACK at time 385
Reenqueueing errored packet 12193 at time 386
Reenqueueing errored packet 15301 at time 400
Reenqueueing errored packet 6502 at time 401
Reenqueueing errored packet 12019 at time 402
Additional hops: 469
Adding flit 20194 as NACK at time 407
Additional hops: 475
Adding flit 11678 as NACK at time 411
Additional hops: 481
Adding flit 16110 as NACK at time 413
Reenqueueing errored packet 20194 at time 414
Additional hops: 489
Adding flit 10851 as NACK at time 417
Additional hops: 490
Adding flit 21274 as NACK at time 423
Reenqueueing errored packet 11678 at time 424
Additional hops: 497
Adding flit 14773 as NACK at time 425
Reenqueueing errored packet 21274 at time 426
Reenqueueing errored packet 16110 at time 426
Additional hops: 505
Adding flit 14204 as NACK at time 428
Additional hops: 512
Adding flit 16606 as NACK at time 428
Reenqueueing errored packet 10851 at time 434
Additional hops: 519
Adding flit 11545 as NACK at time 436
Additional hops: 527
Adding flit 15909 as NACK at time 436
Additional hops: 539
Adding flit 8898 as NACK at time 437
Reenqueueing errored packet 14773 at time 440
Reenqueueing errored packet 16606 at time 443
Reenqueueing errored packet 14204 at time 445
Additional hops: 543
Adding flit 21277 as NACK at time 445
Additional hops: 550
Adding flit 16742 as NACK at time 448
Additional hops: 555
Adding flit 21846 as NACK at time 450
Reenqueueing errored packet 11545 at time 451
Additional hops: 558
Adding flit 18912 as NACK at time 452
Reenqueueing errored packet 15909 at time 453
Reenqueueing errored packet 21277 at time 454
Reenqueueing errored packet 18912 at time 459
Reenqueueing errored packet 21846 at time 461
Additional hops: 563
Adding flit 18565 as NACK at time 461
Additional hops: 570
Adding flit 18716 as NACK at time 461
Reenqueueing errored packet 8898 at time 462
Additional hops: 574
Adding flit 22727 as NACK at time 462
Reenqueueing errored packet 16742 at time 463
Additional hops: 581
Adding flit 21441 as NACK at time 463
Additional hops: 583
Adding flit 23399 as NACK at time 465
Reenqueueing errored packet 23399 at time 470
Additional hops: 590
Adding flit 16906 as NACK at time 470
Reenqueueing errored packet 22727 at time 471
Reenqueueing errored packet 18565 at time 472
Additional hops: 593
Adding flit 21635 as NACK at time 472
Additional hops: 599
Adding flit 11152 as NACK at time 473
Additional hops: 607
Adding flit 13405 as NACK at time 475
Reenqueueing errored packet 18716 at time 476
Reenqueueing errored packet 21441 at time 478
Reenqueueing errored packet 21635 at time 479
Additional hops: 614
Adding flit 18015 as NACK at time 479
Additional hops: 623
Adding flit 15664 as NACK at time 480
Reenqueueing errored packet 16906 at time 485
Reenqueueing errored packet 11152 at time 486
Additional hops: 629
Adding flit 19197 as NACK at time 486
Reenqueueing errored packet 13405 at time 492
Reenqueueing errored packet 18015 at time 494
Additional hops: 636
Adding flit 21793 as NACK at time 494
Additional hops: 641
Adding flit 16713 as NACK at time 495
Additional hops: 647
Adding flit 18936 as NACK at time 497
Reenqueueing errored packet 19197 at time 499
Reenqueueing errored packet 16713 at time 506
Additional hops: 651
Adding flit 21252 as NACK at time 507
Reenqueueing errored packet 21793 at time 509
Reenqueueing errored packet 18936 at time 510
Additional hops: 654
Adding flit 20742 as NACK at time 510
Additional hops: 663
Adding flit 14862 as NACK at time 514
Reenqueueing errored packet 21252 at time 516
Reenqueueing errored packet 20742 at time 517
Additional hops: 668
Adding flit 18993 as NACK at time 517
Additional hops: 671
Adding flit 25438 as NACK at time 519
Additional hops: 678
Adding flit 19261 as NACK at time 522
Reenqueueing errored packet 25438 at time 526
Reenqueueing errored packet 18993 at time 528
Reenqueueing errored packet 14862 at time 533
Reenqueueing errored packet 19261 at time 537
Additional hops: 686
Adding flit 14489 as NACK at time 544
Additional hops: 694
Adding flit 13653 as NACK at time 544
Additional hops: 700
Adding flit 15760 as NACK at time 557
Reenqueueing errored packet 13653 at time 561
Reenqueueing errored packet 14489 at time 561
Reenqueueing errored packet 15760 at time 570
Additional hops: 710
Adding flit 14356 as NACK at time 574
Additional hops: 721
Adding flit 16620 as NACK at time 579
Additional hops: 729
Adding flit 16420 as NACK at time 580
Additional hops: 739
Adding flit 13618 as NACK at time 585
Additional hops: 745
Adding flit 20639 as NACK at time 588
Additional hops: 752
Adding flit 19914 as NACK at time 590
Additional hops: 757
Adding flit 19338 as NACK at time 591
Additional hops: 762
Adding flit 21612 as NACK at time 593
Additional hops: 767
Adding flit 23376 as NACK at time 593
Reenqueueing errored packet 14356 at time 595
Reenqueueing errored packet 16420 at time 597
Reenqueueing errored packet 20639 at time 601
Reenqueueing errored packet 19338 at time 602
Reenqueueing errored packet 16620 at time 602
Additional hops: 775
Adding flit 14013 as NACK at time 603
Reenqueueing errored packet 23376 at time 604
Reenqueueing errored packet 21612 at time 604
Reenqueueing errored packet 19914 at time 605
Reenqueueing errored packet 13618 at time 606
Additional hops: 779
Adding flit 21980 as NACK at time 606
Additional hops: 786
Adding flit 16213 as NACK at time 613
Additional hops: 792
Adding flit 23637 as NACK at time 614
Reenqueueing errored packet 21980 at time 615
Additional hops: 798
Adding flit 28471 as NACK at time 616
Additional hops: 803
Adding flit 25192 as NACK at time 617
Additional hops: 813
Adding flit 10873 as NACK at time 619
Reenqueueing errored packet 14013 at time 620
Reenqueueing errored packet 23637 at time 627
Reenqueueing errored packet 25192 at time 628
Reenqueueing errored packet 16213 at time 628
Reenqueueing errored packet 28471 at time 629
Additional hops: 819
Adding flit 19784 as NACK at time 630
Additional hops: 824
Adding flit 17422 as NACK at time 634
Reenqueueing errored packet 10873 at time 640
Reenqueueing errored packet 19784 at time 643
Reenqueueing errored packet 17422 at time 645
Additional hops: 828
Adding flit 24734 as NACK at time 651
Additional hops: 832
Adding flit 16696 as NACK at time 652
Additional hops: 839
Adding flit 16837 as NACK at time 653
Additional hops: 845
Adding flit 30099 as NACK at time 654
Additional hops: 850
Adding flit 30394 as NACK at time 659
Reenqueueing errored packet 24734 at time 660
Reenqueueing errored packet 16696 at time 661
Reenqueueing errored packet 30099 at time 667
Additional hops: 857
Adding flit 20086 as NACK at time 667
Reenqueueing errored packet 16837 at time 668
Reenqueueing errored packet 30394 at time 670
Additional hops: 863
Adding flit 24472 as NACK at time 672
Additional hops: 869
Adding flit 30249 as NACK at time 680
Reenqueueing errored packet 20086 at time 682
Additional hops: 876
Adding flit 16450 as NACK at time 682
Reenqueueing errored packet 24472 at time 685
Additional hops: 887
Adding flit 18467 as NACK at time 685
Additional hops: 894
Adding flit 14804 as NACK at time 689
Reenqueueing errored packet 30249 at time 693
Reenqueueing errored packet 16450 at time 697
Additional hops: 904
Adding flit 24104 as NACK at time 698
Additional hops: 911
Adding flit 18272 as NACK at time 703
Reenqueueing errored packet 14804 at time 704
Reenqueueing errored packet 18467 at time 708
Reenqueueing errored packet 18272 at time 718
Reenqueueing errored packet 24104 at time 719
Additional hops: 918
Adding flit 17635 as NACK at time 719
Additional hops: 924
Adding flit 25516 as NACK at time 725
Additional hops: 933
Adding flit 17654 as NACK at time 725
Additional hops: 936
Adding flit 35374 as NACK at time 730
Reenqueueing errored packet 17635 at time 734
Reenqueueing errored packet 35374 at time 737
Reenqueueing errored packet 25516 at time 738
Additional hops: 946
Adding flit 21658 as NACK at time 740
Additional hops: 958
Adding flit 12304 as NACK at time 743
Reenqueueing errored packet 17654 at time 744
Additional hops: 964
Adding flit 28964 as NACK at time 750
Reenqueueing errored packet 21658 at time 761
Reenqueueing errored packet 28964 at time 763
Additional hops: 972
Adding flit 14145 as NACK at time 765
Additional hops: 975
Adding flit 35672 as NACK at time 767
Additional hops: 983
Adding flit 25795 as NACK at time 767
Reenqueueing errored packet 12304 at time 768
Additional hops: 989
Adding flit 37456 as NACK at time 770
Additional hops: 999
Adding flit 18930 as NACK at time 772
Additional hops: 1008
Adding flit 23160 as NACK at time 772
Reenqueueing errored packet 35672 at time 774
Additional hops: 1015
Adding flit 22826 as NACK at time 776
Additional hops: 1025
Adding flit 17612 as NACK at time 777
Additional hops: 1028
Adding flit 31887 as NACK at time 781
Reenqueueing errored packet 14145 at time 782
Reenqueueing errored packet 37456 at time 783
Additional hops: 1034
Adding flit 19072 as NACK at time 783
Reenqueueing errored packet 25795 at time 784
Reenqueueing errored packet 31887 at time 788
Additional hops: 1046
Adding flit 14970 as NACK at time 788
Additional hops: 1052
Adding flit 20415 as NACK at time 790
Reenqueueing errored packet 22826 at time 791
Reenqueueing errored packet 23160 at time 791
Reenqueueing errored packet 18930 at time 793
Reenqueueing errored packet 19072 at time 796
Reenqueueing errored packet 17612 at time 798
Reenqueueing errored packet 20415 at time 803
Additional hops: 1056
Adding flit 28687 as NACK at time 805
Reenqueueing errored packet 14970 at time 813
Reenqueueing errored packet 28687 at time 814
Additional hops: 1063
Adding flit 30125 as NACK at time 815
Additional hops: 1070
Adding flit 23097 as NACK at time 820
Additional hops: 1078
Adding flit 24692 as NACK at time 822
Additional hops: 1085
Adding flit 30454 as NACK at time 825
Additional hops: 1092
Adding flit 18924 as NACK at time 828
Reenqueueing errored packet 30125 at time 830
Reenqueueing errored packet 23097 at time 835
Reenqueueing errored packet 24692 at time 839
Reenqueueing errored packet 30454 at time 840
Reenqueueing errored packet 18924 at time 843
Additional hops: 1096
Adding flit 36135 as NACK at time 850
Additional hops: 1100
Adding flit 35857 as NACK at time 852
Reenqueueing errored packet 36135 at time 859
Reenqueueing errored packet 35857 at time 861
Additional hops: 1109
Adding flit 32436 as NACK at time 862
Additional hops: 1118
Adding flit 23725 as NACK at time 869
Additional hops: 1127
Adding flit 17964 as NACK at time 871
Additional hops: 1136
Adding flit 19711 as NACK at time 880
Reenqueueing errored packet 32436 at time 881
Additional hops: 1147
Adding flit 18570 as NACK at time 881
Additional hops: 1153
Adding flit 23454 as NACK at time 883
Additional hops: 1161
Adding flit 21398 as NACK at time 886
Additional hops: 1167
Adding flit 33013 as NACK at time 887
Reenqueueing errored packet 23725 at time 888
Reenqueueing errored packet 17964 at time 890
Reenqueueing errored packet 23454 at time 896
Additional hops: 1175
Adding flit 34405 as NACK at time 896
Reenqueueing errored packet 19711 at time 899
Reenqueueing errored packet 33013 at time 900
Additional hops: 1179
Adding flit 29559 as NACK at time 900
Reenqueueing errored packet 21398 at time 903
Reenqueueing errored packet 18570 at time 904
Additional hops: 1187
Adding flit 33471 as NACK at time 904
Additional hops: 1198
Adding flit 19396 as NACK at time 908
Reenqueueing errored packet 29559 at time 909
Reenqueueing errored packet 34405 at time 913
Additional hops: 1204
Adding flit 30455 as NACK at time 913
Additional hops: 1211
Adding flit 32004 as NACK at time 914
Reenqueueing errored packet 33471 at time 921
Reenqueueing errored packet 30455 at time 926
Additional hops: 1212
Adding flit 47163 as NACK at time 928
Additional hops: 1217
Adding flit 35301 as NACK at time 928
Additional hops: 1225
Adding flit 27571 as NACK at time 928
Reenqueueing errored packet 32004 at time 929
Reenqueueing errored packet 47163 at time 931
Reenqueueing errored packet 19396 at time 931
Additional hops: 1230
Adding flit 40826 as NACK at time 935
Reenqueueing errored packet 35301 at time 939
Reenqueueing errored packet 27571 at time 945
Reenqueueing errored packet 40826 at time 946
Additional hops: 1238
Adding flit 34843 as NACK at time 947
Additional hops: 1243
Adding flit 36978 as NACK at time 950
Additional hops: 1250
Adding flit 30872 as NACK at time 954
Additional hops: 1255
Adding flit 29519 as NACK at time 955
Additional hops: 1261
Adding flit 27817 as NACK at time 958
Reenqueueing errored packet 36978 at time 961
Additional hops: 1270
Adding flit 22028 as NACK at time 961
Reenqueueing errored packet 34843 at time 964
Reenqueueing errored packet 29519 at time 966
Reenqueueing errored packet 30872 at time 969
Reenqueueing errored packet 27817 at time 971
Additional hops: 1279
Adding flit 21104 as NACK at time 971
Additional hops: 1285
Adding flit 39095 as NACK at time 976
Additional hops: 1295
Adding flit 34441 as NACK at time 978
Reenqueueing errored packet 22028 at time 980
Additional hops: 1302
Adding flit 39552 as NACK at time 985
Reenqueueing errored packet 39095 at time 989
Reenqueueing errored packet 21104 at time 990
Additional hops: 1311
Adding flit 34941 as NACK at time 990
Additional hops: 1316
Adding flit 31531 as NACK at time 991
Reenqueueing errored packet 34441 at time 999
Reenqueueing errored packet 39552 at time 1000
Reenqueueing errored packet 31531 at time 1002
Additional hops: 1326
Adding flit 26078 as NACK at time 1004
Additional hops: 1329
Adding flit 50833 as NACK at time 1008
Additional hops: 1336
Adding flit 32994 as NACK at time 1008
Reenqueueing errored packet 34941 at time 1009
Additional hops: 1341
Adding flit 43874 as NACK at time 1014
Reenqueueing errored packet 50833 at time 1015
Additional hops: 1346
Adding flit 39120 as NACK at time 1015
Additional hops: 1353
Adding flit 29150 as NACK at time 1015
Additional hops: 1358
Adding flit 42369 as NACK at time 1017
Additional hops: 1369
Adding flit 24260 as NACK at time 1022
Reenqueueing errored packet 32994 at time 1023
Additional hops: 1380
Adding flit 28515 as NACK at time 1024
Reenqueueing errored packet 43874 at time 1025
Reenqueueing errored packet 26078 at time 1025
Additional hops: 1389
Adding flit 39003 as NACK at time 1025
Reenqueueing errored packet 39120 at time 1026
Reenqueueing errored packet 42369 at time 1028
Additional hops: 1394
Adding flit 38574 as NACK at time 1029
Reenqueueing errored packet 29150 at time 1030
Additional hops: 1397
Adding flit 45444 as NACK at time 1037
Additional hops: 1402
Adding flit 41893 as NACK at time 1039
Additional hops: 1410
Adding flit 25582 as NACK at time 1039
Reenqueueing errored packet 38574 at time 1040
Reenqueueing errored packet 45444 at time 1044
Reenqueueing errored packet 39003 at time 1044
Reenqueueing errored packet 24260 at time 1045
Reenqueueing errored packet 28515 at time 1047
Additional hops: 1414
Adding flit 39433 as NACK at time 1049
Reenqueueing errored packet 41893 at time 1050
Additional hops: 1420
Adding flit 35332 as NACK at time 1050
Additional hops: 1425
Adding flit 32055 as NACK at time 1050
Additional hops: 1433
Adding flit 43744 as NACK at time 1051
Reenqueueing errored packet 25582 at time 1056
Reenqueueing errored packet 39433 at time 1058
Reenqueueing errored packet 32055 at time 1061
Additional hops: 1436
Adding flit 53132 as NACK at time 1061
Additional hops: 1444
Adding flit 38775 as NACK at time 1061
Additional hops: 1459
Adding flit 20222 as NACK at time 1062
Reenqueueing errored packet 35332 at time 1063
Additional hops: 1469
Adding flit 21863 as NACK at time 1065
Reenqueueing errored packet 53132 at time 1068
Reenqueueing errored packet 43744 at time 1068
Additional hops: 1473
Adding flit 44041 as NACK at time 1072
Additional hops: 1477
Adding flit 40942 as NACK at time 1073
Additional hops: 1485
Adding flit 23597 as NACK at time 1075
Reenqueueing errored packet 38775 at time 1078
Additional hops: 1488
Adding flit 46561 as NACK at time 1079
Additional hops: 1498
Adding flit 37602 as NACK at time 1080
Reenqueueing errored packet 44041 at time 1081
Reenqueueing errored packet 40942 at time 1082
Additional hops: 1503
Adding flit 42065 as NACK at time 1083
Additional hops: 1513
Adding flit 27713 as NACK at time 1084
Reenqueueing errored packet 46561 at time 1086
Reenqueueing errored packet 21863 at time 1086
Reenqueueing errored packet 23597 at time 1092
Reenqueueing errored packet 20222 at time 1093
Reenqueueing errored packet 42065 at time 1094
Additional hops: 1519
Adding flit 26860 as NACK at time 1096
Additional hops: 1523
Adding flit 55076 as NACK at time 1097
Additional hops: 1525
Adding flit 55665 as NACK at time 1098
Additional hops: 1532
Adding flit 24677 as NACK at time 1098
Additional hops: 1539
Adding flit 28558 as NACK at time 1099
Reenqueueing errored packet 37602 at time 1101
Additional hops: 1548
Adding flit 41595 as NACK at time 1102
Reenqueueing errored packet 55665 at time 1103
Additional hops: 1551
Adding flit 55821 as NACK at time 1104
Reenqueueing errored packet 27713 at time 1105
Reenqueueing errored packet 55076 at time 1106
Additional hops: 1555
Adding flit 37325 as NACK at time 1108
Reenqueueing errored packet 26860 at time 1109
Additional hops: 1561
Adding flit 42814 as NACK at time 1109
Additional hops: 1566
Adding flit 54781 as NACK at time 1110
Reenqueueing errored packet 55821 at time 1111
Additional hops: 1574
Adding flit 27583 as NACK at time 1112
Reenqueueing errored packet 24677 at time 1113
Reenqueueing errored packet 28558 at time 1114
Additional hops: 1579
Adding flit 44766 as NACK at time 1114
Reenqueueing errored packet 37325 at time 1117
Additional hops: 1584
Adding flit 49181 as NACK at time 1117
Reenqueueing errored packet 54781 at time 1121
Reenqueueing errored packet 41595 at time 1121
Reenqueueing errored packet 42814 at time 1122
Reenqueueing errored packet 44766 at time 1125
Reenqueueing errored packet 49181 at time 1128
Reenqueueing errored packet 27583 at time 1129
Additional hops: 1587
Adding flit 57234 as NACK at time 1132
Reenqueueing errored packet 57234 at time 1139
Additional hops: 1590
Adding flit 57463 as NACK at time 1139
Additional hops: 1599
Adding flit 27726 as NACK at time 1143
Reenqueueing errored packet 57463 at time 1146
Additional hops: 1609
Adding flit 24137 as NACK at time 1150
Additional hops: 1613
Adding flit 58053 as NACK at time 1151
Reenqueueing errored packet 58053 at time 1160
Reenqueueing errored packet 27726 at time 1162
Additional hops: 1616
Adding flit 50420 as NACK at time 1163
Additional hops: 1617
Adding flit 59117 as NACK at time 1164
Reenqueueing errored packet 59117 at time 1167
Additional hops: 1623
Adding flit 27273 as NACK at time 1168
Reenqueueing errored packet 50420 at time 1170
Reenqueueing errored packet 24137 at time 1171
Additional hops: 1628
Adding flit 55991 as NACK at time 1171
Reenqueueing errored packet 27273 at time 1181
Reenqueueing errored packet 55991 at time 1182
Additional hops: 1639
Adding flit 22485 as NACK at time 1183
Additional hops: 1645
Adding flit 45682 as NACK at time 1193
Additional hops: 1651
Adding flit 31725 as NACK at time 1201
Reenqueueing errored packet 45682 at time 1206
Reenqueueing errored packet 22485 at time 1206
Additional hops: 1654
Adding flit 55990 as NACK at time 1208
Reenqueueing errored packet 31725 at time 1214
Reenqueueing errored packet 55990 at time 1215
Additional hops: 1661
Adding flit 39918 as NACK at time 1217
Additional hops: 1668
Adding flit 45574 as NACK at time 1222
Additional hops: 1671
Adding flit 60725 as NACK at time 1226
Reenqueueing errored packet 39918 at time 1232
Reenqueueing errored packet 60725 at time 1233
Additional hops: 1678
Adding flit 32198 as NACK at time 1233
Additional hops: 1686
Adding flit 41285 as NACK at time 1236
Reenqueueing errored packet 45574 at time 1237
Additional hops: 1692
Adding flit 49963 as NACK at time 1241
Additional hops: 1696
Adding flit 51160 as NACK at time 1242
Additional hops: 1704
Adding flit 30578 as NACK at time 1244
Reenqueueing errored packet 32198 at time 1248
Reenqueueing errored packet 51160 at time 1251
Additional hops: 1712
Adding flit 38972 as NACK at time 1251
Reenqueueing errored packet 41285 at time 1253
Reenqueueing errored packet 49963 at time 1254
Reenqueueing errored packet 30578 at time 1261
Additional hops: 1714
Adding flit 64153 as NACK at time 1266
Reenqueueing errored packet 38972 at time 1268
Additional hops: 1724
Adding flit 32518 as NACK at time 1269
Reenqueueing errored packet 64153 at time 1271
Additional hops: 1729
Adding flit 53839 as NACK at time 1271
Additional hops: 1734
Adding flit 35935 as NACK at time 1277
Reenqueueing errored packet 53839 at time 1282
Reenqueueing errored packet 35935 at time 1288
Reenqueueing errored packet 32518 at time 1290
Additional hops: 1739
Adding flit 47266 as NACK at time 1295
Additional hops: 1749
Adding flit 32379 as NACK at time 1295
Additional hops: 1757
Adding flit 28348 as NACK at time 1298
Additional hops: 1762
Adding flit 49419 as NACK at time 1299
Additional hops: 1769
Adding flit 54361 as NACK at time 1300
Additional hops: 1778
Adding flit 32248 as NACK at time 1302
Additional hops: 1781
Adding flit 59007 as NACK at time 1305
Reenqueueing errored packet 47266 at time 1306
Reenqueueing errored packet 49419 at time 1310
Reenqueueing errored packet 59007 at time 1312
Reenqueueing errored packet 54361 at time 1315
Reenqueueing errored packet 28348 at time 1315
Additional hops: 1793
Adding flit 22865 as NACK at time 1315
Reenqueueing errored packet 32379 at time 1316
Additional hops: 1798
Adding flit 53015 as NACK at time 1317
Reenqueueing errored packet 32248 at time 1321
Additional hops: 1804
Adding flit 51488 as NACK at time 1326
Additional hops: 1807
Adding flit 56043 as NACK at time 1326
Additional hops: 1815
Adding flit 52488 as NACK at time 1326
Additional hops: 1823
Adding flit 35165 as NACK at time 1327
Reenqueueing errored packet 53015 at time 1328
Additional hops: 1832
Adding flit 37067 as NACK at time 1330
Reenqueueing errored packet 56043 at time 1333
Additional hops: 1839
Adding flit 41369 as NACK at time 1337
Reenqueueing errored packet 51488 at time 1339
Reenqueueing errored packet 22865 at time 1340
Reenqueueing errored packet 52488 at time 1343
Additional hops: 1849
Adding flit 31049 as NACK at time 1343
Reenqueueing errored packet 35165 at time 1344
Additional hops: 1854
Adding flit 47834 as NACK at time 1347
Reenqueueing errored packet 37067 at time 1349
Additional hops: 1860
Adding flit 33885 as NACK at time 1351
Reenqueueing errored packet 41369 at time 1352
Additional hops: 1871
Adding flit 29740 as NACK at time 1352
Reenqueueing errored packet 47834 at time 1358
Additional hops: 1881
Adding flit 42334 as NACK at time 1360
Additional hops: 1890
Adding flit 38274 as NACK at time 1362
Additional hops: 1898
Adding flit 33204 as NACK at time 1363
Reenqueueing errored packet 33885 at time 1364
Reenqueueing errored packet 31049 at time 1364
Reenqueueing errored packet 29740 at time 1375
Additional hops: 1912
Adding flit 26957 as NACK at time 1375
Reenqueueing errored packet 33204 at time 1380
Additional hops: 1921
Adding flit 40724 as NACK at time 1380
Reenqueueing errored packet 38274 at time 1381
Reenqueueing errored packet 42334 at time 1381
Additional hops: 1927
Adding flit 33144 as NACK at time 1385
Additional hops: 1932
Adding flit 62063 as NACK at time 1389
Additional hops: 1939
Adding flit 38709 as NACK at time 1397
Additional hops: 1951
Adding flit 27513 as NACK at time 1397
Reenqueueing errored packet 33144 at time 1398
Reenqueueing errored packet 40724 at time 1399
Additional hops: 1960
Adding flit 34713 as NACK at time 1399
Reenqueueing errored packet 62063 at time 1400
Additional hops: 1966
Adding flit 42152 as NACK at time 1400
Additional hops: 1971
Adding flit 43134 as NACK at time 1402
Reenqueueing errored packet 26957 at time 1404
Reenqueueing errored packet 38709 at time 1412
Reenqueueing errored packet 43134 at time 1413
Reenqueueing errored packet 42152 at time 1413
Reenqueueing errored packet 34713 at time 1418
Additional hops: 1978
Adding flit 43102 as NACK at time 1418
Reenqueueing errored packet 27513 at time 1422
Additional hops: 1983
Adding flit 60408 as NACK at time 1424
Additional hops: 1988
Adding flit 50879 as NACK at time 1426
Reenqueueing errored packet 43102 at time 1433
Reenqueueing errored packet 60408 at time 1435
Reenqueueing errored packet 50879 at time 1437
Additional hops: 1995
Adding flit 54914 as NACK at time 1440
Additional hops: 2002
Adding flit 39267 as NACK at time 1451
Additional hops: 2006
Adding flit 55041 as NACK at time 1452
Reenqueueing errored packet 54914 at time 1455
Additional hops: 2014
Adding flit 38306 as NACK at time 1455
Additional hops: 2023
Adding flit 29502 as NACK at time 1455
Reenqueueing errored packet 55041 at time 1461
Additional hops: 2034
Adding flit 34125 as NACK at time 1464
Reenqueueing errored packet 39267 at time 1466
Additional hops: 2038
Adding flit 69406 as NACK at time 1466
Additional hops: 2045
Adding flit 66394 as NACK at time 1466
Reenqueueing errored packet 38306 at time 1472
Reenqueueing errored packet 29502 at time 1474
Additional hops: 2054
Adding flit 54649 as NACK at time 1474
Reenqueueing errored packet 69406 at time 1475
Additional hops: 2060
Adding flit 36211 as NACK at time 1475
Additional hops: 2071
Adding flit 32088 as NACK at time 1477
Reenqueueing errored packet 66394 at time 1481
Additional hops: 2077
Adding flit 60185 as NACK at time 1483
Reenqueueing errored packet 34125 at time 1487
Reenqueueing errored packet 36211 at time 1488
Additional hops: 2086
Adding flit 48222 as NACK at time 1488
Additional hops: 2096
Adding flit 29110 as NACK at time 1488
Additional hops: 2105
Adding flit 37089 as NACK at time 1490
Reenqueueing errored packet 54649 at time 1493
Reenqueueing errored packet 60185 at time 1496
Reenqueueing errored packet 32088 at time 1500
Reenqueueing errored packet 48222 at time 1507
Reenqueueing errored packet 37089 at time 1509
Reenqueueing errored packet 29110 at time 1509
Additional hops: 2118
Adding flit 28134 as NACK at time 1511
Additional hops: 2124
Adding flit 63794 as NACK at time 1512
Additional hops: 2128
Adding flit 60732 as NACK at time 1516
Additional hops: 2133
Adding flit 57131 as NACK at time 1517
Additional hops: 2138
Adding flit 43600 as NACK at time 1524
Reenqueueing errored packet 60732 at time 1525
Reenqueueing errored packet 63794 at time 1525
Additional hops: 2146
Adding flit 56284 as NACK at time 1525
Additional hops: 2152
Adding flit 58845 as NACK at time 1527
Reenqueueing errored packet 57131 at time 1528
Additional hops: 2157
Adding flit 49534 as NACK at time 1529
Reenqueueing errored packet 43600 at time 1535
Additional hops: 2160
Adding flit 77720 as NACK at time 1535
Reenqueueing errored packet 28134 at time 1538
Reenqueueing errored packet 49534 at time 1540
Reenqueueing errored packet 58845 at time 1540
Additional hops: 2169
Adding flit 58983 as NACK at time 1541
Reenqueueing errored packet 77720 at time 1542
Reenqueueing errored packet 56284 at time 1542
Additional hops: 2180
Adding flit 44336 as NACK at time 1543
Additional hops: 2188
Adding flit 35085 as NACK at time 1544
Additional hops: 2193
Adding flit 55661 as NACK at time 1545
Additional hops: 2200
Adding flit 53363 as NACK at time 1548
Additional hops: 2205
Adding flit 63272 as NACK at time 1549
Additional hops: 2209
Adding flit 60761 as NACK at time 1553
Additional hops: 2213
Adding flit 57798 as NACK at time 1555
Reenqueueing errored packet 55661 at time 1556
Additional hops: 2218
Adding flit 60765 as NACK at time 1559
Reenqueueing errored packet 63272 at time 1560
Reenqueueing errored packet 58983 at time 1560
Reenqueueing errored packet 35085 at time 1561
Reenqueueing errored packet 60761 at time 1562
Reenqueueing errored packet 53363 at time 1563
Reenqueueing errored packet 57798 at time 1564
Reenqueueing errored packet 44336 at time 1566
Additional hops: 2221
Adding flit 79393 as NACK at time 1567
Additional hops: 2225
Adding flit 78605 as NACK at time 1568
Reenqueueing errored packet 60765 at time 1570
Reenqueueing errored packet 79393 at time 1574
Reenqueueing errored packet 78605 at time 1577
Additional hops: 2232
Adding flit 36197 as NACK at time 1588
Additional hops: 2237
Adding flit 66440 as NACK at time 1589
Additional hops: 2243
Adding flit 52942 as NACK at time 1592
Additional hops: 2253
Adding flit 38934 as NACK at time 1595
Reenqueueing errored packet 66440 at time 1600
Additional hops: 2258
Adding flit 59898 as NACK at time 1602
Reenqueueing errored packet 36197 at time 1603
Reenqueueing errored packet 52942 at time 1605
Additional hops: 2263
Adding flit 80713 as NACK at time 1605
Additional hops: 2268
Adding flit 51287 as NACK at time 1605
Additional hops: 2272
Adding flit 80113 as NACK at time 1605
Additional hops: 2280
Adding flit 39140 as NACK at time 1606
Additional hops: 2286
Adding flit 65000 as NACK at time 1607
Additional hops: 2292
Adding flit 68642 as NACK at time 1610
Additional hops: 2296
Adding flit 75946 as NACK at time 1610
Additional hops: 2310
Adding flit 26642 as NACK at time 1611
Reenqueueing errored packet 59898 at time 1613
Reenqueueing errored packet 80113 at time 1614
Reenqueueing errored packet 51287 at time 1616
Reenqueueing errored packet 80713 at time 1616
Reenqueueing errored packet 38934 at time 1616
Additional hops: 2313
Adding flit 81834 as NACK at time 1616
Reenqueueing errored packet 75946 at time 1619
Reenqueueing errored packet 65000 at time 1620
Additional hops: 2325
Adding flit 31033 as NACK at time 1620
Reenqueueing errored packet 81834 at time 1623
Reenqueueing errored packet 68642 at time 1623
Reenqueueing errored packet 39140 at time 1623
Additional hops: 2330
Adding flit 66055 as NACK at time 1623
Additional hops: 2334
Adding flit 63932 as NACK at time 1630
Reenqueueing errored packet 66055 at time 1634
Additional hops: 2343
Adding flit 48218 as NACK at time 1634
Additional hops: 2348
Adding flit 40879 as NACK at time 1638
Reenqueueing errored packet 63932 at time 1639
Reenqueueing errored packet 26642 at time 1640
Reenqueueing errored packet 31033 at time 1645
Reenqueueing errored packet 40879 at time 1649
Additional hops: 2357
Adding flit 40091 as NACK at time 1650
Reenqueueing errored packet 48218 at time 1653
Reenqueueing errored packet 40091 at time 1669
Additional hops: 2361
Adding flit 79887 as NACK at time 1669
Additional hops: 2366
Adding flit 71539 as NACK at time 1671
Additional hops: 2373
Adding flit 45040 as NACK at time 1673
Additional hops: 2378
Adding flit 80801 as NACK at time 1677
Reenqueueing errored packet 79887 at time 1678
Reenqueueing errored packet 71539 at time 1682
Additional hops: 2386
Adding flit 35294 as NACK at time 1683
Reenqueueing errored packet 80801 at time 1688
Reenqueueing errored packet 45040 at time 1688
Additional hops: 2393
Adding flit 66422 as NACK at time 1690
Additional hops: 2398
Adding flit 44636 as NACK at time 1692
Reenqueueing errored packet 35294 at time 1700
Reenqueueing errored packet 44636 at time 1703
Additional hops: 2400
Adding flit 86385 as NACK at time 1703
Additional hops: 2407
Adding flit 43108 as NACK at time 1704
Additional hops: 2414
Adding flit 65832 as NACK at time 1704
Reenqueueing errored packet 66422 at time 1705
Additional hops: 2418
Adding flit 78853 as NACK at time 1705
Additional hops: 2427
Adding flit 46899 as NACK at time 1706
Reenqueueing errored packet 86385 at time 1708
Additional hops: 2435
Adding flit 64250 as NACK at time 1708
Reenqueueing errored packet 78853 at time 1714
Reenqueueing errored packet 65832 at time 1719
Reenqueueing errored packet 43108 at time 1719
Additional hops: 2438
Adding flit 71335 as NACK at time 1720
Additional hops: 2448
Adding flit 62822 as NACK at time 1721
Additional hops: 2458
Adding flit 36937 as NACK at time 1722
Additional hops: 2467
Adding flit 51807 as NACK at time 1724
Reenqueueing errored packet 64250 at time 1725
Reenqueueing errored packet 46899 at time 1725
Additional hops: 2473
Adding flit 70163 as NACK at time 1725
Reenqueueing errored packet 71335 at time 1727
Reenqueueing errored packet 70163 at time 1738
Additional hops: 2482
Adding flit 68818 as NACK at time 1741
Reenqueueing errored packet 62822 at time 1742
Reenqueueing errored packet 51807 at time 1743
Reenqueueing errored packet 36937 at time 1743
Additional hops: 2487
Adding flit 45889 as NACK at time 1749
Additional hops: 2499
Adding flit 32685 as NACK at time 1753
Additional hops: 2511
Adding flit 35163 as NACK at time 1753
Reenqueueing errored packet 45889 at time 1760
Reenqueueing errored packet 68818 at time 1760
Additional hops: 2516
Adding flit 83109 as NACK at time 1761
Additional hops: 2525
Adding flit 54389 as NACK at time 1767
Reenqueueing errored packet 83109 at time 1772
Additional hops: 2536
Adding flit 40901 as NACK at time 1773
Additional hops: 2543
Adding flit 43382 as NACK at time 1773
Reenqueueing errored packet 35163 at time 1778
Reenqueueing errored packet 32685 at time 1778
Additional hops: 2548
Adding flit 80510 as NACK at time 1779
Reenqueueing errored packet 54389 at time 1786
Reenqueueing errored packet 43382 at time 1788
Reenqueueing errored packet 80510 at time 1790
Additional hops: 2550
Adding flit 91101 as NACK at time 1792
Additional hops: 2555
Adding flit 68983 as NACK at time 1795
Reenqueueing errored packet 40901 at time 1796
Reenqueueing errored packet 91101 at time 1797
Additional hops: 2564
Adding flit 43397 as NACK at time 1801
Additional hops: 2570
Adding flit 72392 as NACK at time 1802
Reenqueueing errored packet 68983 at time 1806
Additional hops: 2575
Adding flit 63260 as NACK at time 1806
Additional hops: 2581
Adding flit 72414 as NACK at time 1811
Additional hops: 2586
Adding flit 65179 as NACK at time 1814
Reenqueueing errored packet 72392 at time 1815
Additional hops: 2592
Adding flit 66609 as NACK at time 1815
Additional hops: 2595
Adding flit 83189 as NACK at time 1816
Reenqueueing errored packet 63260 at time 1817
Additional hops: 2602
Adding flit 68850 as NACK at time 1819
Reenqueueing errored packet 43397 at time 1820
Reenqueueing errored packet 83189 at time 1823
Reenqueueing errored packet 72414 at time 1824
Reenqueueing errored packet 65179 at time 1825
Reenqueueing errored packet 66609 at time 1828
Additional hops: 2603
Adding flit 93259 as NACK at time 1829
Reenqueueing errored packet 93259 at time 1832
Additional hops: 2614
Adding flit 45105 as NACK at time 1833
Reenqueueing errored packet 68850 at time 1834
Additional hops: 2619
Adding flit 74366 as NACK at time 1837
Additional hops: 2625
Adding flit 60472 as NACK at time 1839
Additional hops: 2633
Adding flit 44999 as NACK at time 1845
Reenqueueing errored packet 74366 at time 1848
Additional hops: 2641
Adding flit 44909 as NACK at time 1850
Reenqueueing errored packet 60472 at time 1852
Reenqueueing errored packet 45105 at time 1856
Additional hops: 2644
Adding flit 83401 as NACK at time 1858
Additional hops: 2654
Adding flit 43477 as NACK at time 1861
Reenqueueing errored packet 44999 at time 1862
Additional hops: 2658
Adding flit 82996 as NACK at time 1864
Reenqueueing errored packet 83401 at time 1865
Reenqueueing errored packet 44909 at time 1867
Additional hops: 2670
Adding flit 34730 as NACK at time 1870
Additional hops: 2675
Adding flit 65815 as NACK at time 1871
Reenqueueing errored packet 82996 at time 1873
Additional hops: 2681
Adding flit 44894 as NACK at time 1878
Additional hops: 2688
Adding flit 45255 as NACK at time 1880
Additional hops: 2694
Adding flit 57350 as NACK at time 1880
Reenqueueing errored packet 65815 at time 1882
Reenqueueing errored packet 43477 at time 1882
Additional hops: 2702
Adding flit 47044 as NACK at time 1884
Additional hops: 2708
Adding flit 64511 as NACK at time 1888
Reenqueueing errored packet 44894 at time 1891
Reenqueueing errored packet 57350 at time 1893
Additional hops: 2715
Adding flit 56936 as NACK at time 1894
Reenqueueing errored packet 45255 at time 1895
Reenqueueing errored packet 34730 at time 1895
Additional hops: 2723
Adding flit 61945 as NACK at time 1896
Additional hops: 2736
Adding flit 37181 as NACK at time 1898
Reenqueueing errored packet 64511 at time 1901
Reenqueueing errored packet 47044 at time 1901
Additional hops: 2743
Adding flit 55162 as NACK at time 1902
Additional hops: 2752
Adding flit 41971 as NACK at time 1902
Reenqueueing errored packet 56936 at time 1909
Additional hops: 2757
Adding flit 72279 as NACK at time 1910
Reenqueueing errored packet 61945 at time 1913
Additional hops: 2761
Adding flit 57410 as NACK at time 1914
Reenqueueing errored packet 55162 at time 1917
Reenqueueing errored packet 72279 at time 1921
Reenqueueing errored packet 41971 at time 1921
Reenqueueing errored packet 57410 at time 1923
Additional hops: 2766
Adding flit 77775 as NACK at time 1923
Reenqueueing errored packet 37181 at time 1925
Additional hops: 2775
Adding flit 41586 as NACK at time 1927
Reenqueueing errored packet 77775 at time 1934
Additional hops: 2783
Adding flit 79092 as NACK at time 1945
Reenqueueing errored packet 41586 at time 1946
Additional hops: 2791
Adding flit 73980 as NACK at time 1946
Additional hops: 2798
Adding flit 45654 as NACK at time 1948
Additional hops: 2806
Adding flit 48138 as NACK at time 1950
Additional hops: 2811
Adding flit 61135 as NACK at time 1951
Additional hops: 2814
Adding flit 96577 as NACK at time 1953
Reenqueueing errored packet 96577 at time 1960
Reenqueueing errored packet 61135 at time 1962
Reenqueueing errored packet 79092 at time 1962
Reenqueueing errored packet 45654 at time 1963
Reenqueueing errored packet 73980 at time 1963
Reenqueueing errored packet 48138 at time 1967
Additional hops: 2821
Adding flit 67425 as NACK at time 1973
Additional hops: 2831
Adding flit 49320 as NACK at time 1976
Additional hops: 2835
Adding flit 99516 as NACK at time 1981
Additional hops: 2843
Adding flit 50921 as NACK at time 1982
Additional hops: 2851
Adding flit 61133 as NACK at time 1984
Additional hops: 2859
Adding flit 46036 as NACK at time 1985
Additional hops: 2869
Adding flit 59290 as NACK at time 1986
Reenqueueing errored packet 67425 at time 1988
Reenqueueing errored packet 99516 at time 1990
Reenqueueing errored packet 49320 at time 1997
Additional hops: 2874
Adding flit 95790 as NACK at time 1998
Reenqueueing errored packet 50921 at time 1999
Reenqueueing errored packet 61133 at time 2001
Additional hops: 2884
Adding flit 56257 as NACK at time 2001
Reenqueueing errored packet 46036 at time 2002
Reenqueueing errored packet 59290 at time 2007
Reenqueueing errored packet 95790 at time 2009
Additional hops: 2888
Adding flit 79709 as NACK at time 2011
Additional hops: 2893
Adding flit 69428 as NACK at time 2015
Additional hops: 2899
Adding flit 81066 as NACK at time 2017
Reenqueueing errored packet 79709 at time 2020
Reenqueueing errored packet 56257 at time 2022
Reenqueueing errored packet 69428 at time 2026
Reenqueueing errored packet 81066 at time 2030
Additional hops: 2902
Adding flit 103114 as NACK at time 2030
Additional hops: 2911
Adding flit 62990 as NACK at time 2034
Additional hops: 2917
Adding flit 64234 as NACK at time 2036
Reenqueueing errored packet 103114 at time 2037
Additional hops: 2925
Adding flit 87144 as NACK at time 2037
Additional hops: 2929
Adding flit 64058 as NACK at time 2037
Additional hops: 2935
Adding flit 91971 as NACK at time 2038
Reenqueueing errored packet 64058 at time 2046
Reenqueueing errored packet 64234 at time 2049
Additional hops: 2943
Adding flit 69828 as NACK at time 2049
Reenqueueing errored packet 91971 at time 2051
Additional hops: 2949
Adding flit 69733 as NACK at time 2051
Reenqueueing errored packet 62990 at time 2053
Reenqueueing errored packet 87144 at time 2054
Additional hops: 2953
Adding flit 104240 as NACK at time 2062
Additional hops: 2957
Adding flit 80805 as NACK at time 2063
Additional hops: 2961
Adding flit 85546 as NACK at time 2063
Reenqueueing errored packet 69733 at time 2064
Reenqueueing errored packet 69828 at time 2066
Additional hops: 2972
Adding flit 45997 as NACK at time 2069
Reenqueueing errored packet 104240 at time 2071
Additional hops: 2978
Adding flit 54129 as NACK at time 2071
Additional hops: 2986
Adding flit 78999 as NACK at time 2071
Reenqueueing errored packet 85546 at time 2072
Reenqueueing errored packet 80805 at time 2072
Additional hops: 2988
Adding flit 105440 as NACK at time 2072
Additional hops: 2999
Adding flit 64149 as NACK at time 2076
Additional hops: 3008
Adding flit 47533 as NACK at time 2076
Reenqueueing errored packet 105440 at time 2077
Additional hops: 3019
Adding flit 49265 as NACK at time 2081
Reenqueueing errored packet 54129 at time 2084
Additional hops: 3021
Adding flit 106136 as NACK at time 2087
Reenqueueing errored packet 78999 at time 2088
Additional hops: 3028
Adding flit 51565 as NACK at time 2091
Reenqueueing errored packet 106136 at time 2092
Reenqueueing errored packet 45997 at time 2092
Additional hops: 3033
Adding flit 83081 as NACK at time 2092
Additional hops: 3039
Adding flit 64694 as NACK at time 2092
Reenqueueing errored packet 47533 at time 2095
Additional hops: 3044
Adding flit 84305 as NACK at time 2095
Additional hops: 3047
Adding flit 101818 as NACK at time 2097
Additional hops: 3055
Adding flit 78105 as NACK at time 2098
Reenqueueing errored packet 64149 at time 2099
Additional hops: 3065
Adding flit 40729 as NACK at time 2100
Reenqueueing errored packet 83081 at time 2103
Reenqueueing errored packet 101818 at time 2104
Reenqueueing errored packet 49265 at time 2104
Reenqueueing errored packet 64694 at time 2105
Reenqueueing errored packet 84305 at time 2106
Reenqueueing errored packet 51565 at time 2106
Additional hops: 3074
Adding flit 46739 as NACK at time 2109
Additional hops: 3081
Adding flit 50295 as NACK at time 2114
Reenqueueing errored packet 78105 at time 2115
Reenqueueing errored packet 40729 at time 2121
Additional hops: 3087
Adding flit 76971 as NACK at time 2124
Additional hops: 3093
Adding flit 55294 as NACK at time 2124
Reenqueueing errored packet 46739 at time 2128
Reenqueueing errored packet 50295 at time 2129
Additional hops: 3099
Adding flit 73634 as NACK at time 2130
Additional hops: 3107
Adding flit 69684 as NACK at time 2132
Reenqueueing errored packet 55294 at time 2137
Reenqueueing errored packet 76971 at time 2137
Additional hops: 3111
Adding flit 70009 as NACK at time 2138
Additional hops: 3120
Adding flit 77448 as NACK at time 2140
Reenqueueing errored packet 73634 at time 2143
Reenqueueing errored packet 70009 at time 2147
Reenqueueing errored packet 69684 at time 2149
Additional hops: 3125
Adding flit 80419 as NACK at time 2149
Additional hops: 3134
Adding flit 51526 as NACK at time 2156
Additional hops: 3139
Adding flit 95794 as NACK at time 2157
Reenqueueing errored packet 77448 at time 2159
Additional hops: 3147
Adding flit 82487 as NACK at time 2159
Reenqueueing errored packet 80419 at time 2160
Additional hops: 3156
Adding flit 71603 as NACK at time 2161
Reenqueueing errored packet 95794 at time 2168
Additional hops: 3162
Adding flit 86369 as NACK at time 2168
Additional hops: 3166
Adding flit 109795 as NACK at time 2169
Additional hops: 3170
Adding flit 80201 as NACK at time 2171
Reenqueueing errored packet 51526 at time 2175
Reenqueueing errored packet 82487 at time 2176
Reenqueueing errored packet 109795 at time 2178
Additional hops: 3177
Adding flit 75970 as NACK at time 2179
Reenqueueing errored packet 80201 at time 2180
Reenqueueing errored packet 71603 at time 2180
Reenqueueing errored packet 86369 at time 2181
Additional hops: 3184
Adding flit 54553 as NACK at time 2183
Additional hops: 3192
Adding flit 60755 as NACK at time 2184
Additional hops: 3199
Adding flit 74042 as NACK at time 2189
Reenqueueing errored packet 75970 at time 2194
Additional hops: 3202
Adding flit 108600 as NACK at time 2196
Additional hops: 3210
Adding flit 68242 as NACK at time 2197
Reenqueueing errored packet 54553 at time 2198
Additional hops: 3216
Adding flit 91521 as NACK at time 2199
Reenqueueing errored packet 60755 at time 2201
Additional hops: 3224
Adding flit 56543 as NACK at time 2202
Reenqueueing errored packet 108600 at time 2203
Reenqueueing errored packet 74042 at time 2204
Additional hops: 3236
Adding flit 41343 as NACK at time 2204
Additional hops: 3242
Adding flit 54977 as NACK at time 2207
Additional hops: 3244
Adding flit 85337 as NACK at time 2207
Reenqueueing errored packet 85337 at time 2212
Reenqueueing errored packet 91521 at time 2212
Additional hops: 3247
Adding flit 111702 as NACK at time 2212
Additional hops: 3253
Adding flit 73313 as NACK at time 2213
Reenqueueing errored packet 68242 at time 2214
Additional hops: 3259
Adding flit 86658 as NACK at time 2218
Reenqueueing errored packet 111702 at time 2219
Reenqueueing errored packet 56543 at time 2219
Reenqueueing errored packet 54977 at time 2220
Additional hops: 3266
Adding flit 76082 as NACK at time 2221
Additional hops: 3276
Adding flit 52098 as NACK at time 2223
Additional hops: 3283
Adding flit 55804 as NACK at time 2225
Reenqueueing errored packet 73313 at time 2226
Additional hops: 3292
Adding flit 53501 as NACK at time 2228
Reenqueueing errored packet 41343 at time 2229
Reenqueueing errored packet 86658 at time 2231
Reenqueueing errored packet 76082 at time 2236
Additional hops: 3300
Adding flit 63828 as NACK at time 2236
Reenqueueing errored packet 55804 at time 2240
Reenqueueing errored packet 52098 at time 2244
Reenqueueing errored packet 53501 at time 2247
Additional hops: 3308
Adding flit 86991 as NACK at time 2248
Reenqueueing errored packet 63828 at time 2253
Additional hops: 3316
Adding flit 88728 as NACK at time 2257
Additional hops: 3322
Adding flit 65723 as NACK at time 2257
Reenqueueing errored packet 86991 at time 2265
Additional hops: 3331
Adding flit 60902 as NACK at time 2265
Additional hops: 3335
Adding flit 114329 as NACK at time 2266
Additional hops: 3342
Adding flit 96494 as NACK at time 2269
Reenqueueing errored packet 65723 at time 2270
Additional hops: 3352
Adding flit 63919 as NACK at time 2273
Reenqueueing errored packet 88728 at time 2274
Reenqueueing errored packet 114329 at time 2275
Additional hops: 3360
Adding flit 54576 as NACK at time 2278
Additional hops: 3366
Adding flit 88028 as NACK at time 2281
Additional hops: 3373
Adding flit 85252 as NACK at time 2282
Reenqueueing errored packet 96494 at time 2284
Reenqueueing errored packet 60902 at time 2284
Additional hops: 3382
Adding flit 44299 as NACK at time 2284
Additional hops: 3387
Adding flit 94667 as NACK at time 2285
Additional hops: 3394
Adding flit 88035 as NACK at time 2285
Reenqueueing errored packet 88028 at time 2294
Reenqueueing errored packet 63919 at time 2294
Reenqueueing errored packet 54576 at time 2295
Additional hops: 3401
Adding flit 62606 as NACK at time 2295
Reenqueueing errored packet 94667 at time 2296
Reenqueueing errored packet 85252 at time 2297
Reenqueueing errored packet 88035 at time 2300
Reenqueueing errored packet 44299 at time 2303
Reenqueueing errored packet 62606 at time 2310
Additional hops: 3406
Adding flit 68798 as NACK at time 2312
Additional hops: 3412
Adding flit 71447 as NACK at time 2317
Additional hops: 3418
Adding flit 99452 as NACK at time 2320
Reenqueueing errored packet 68798 at time 2323
Additional hops: 3425
Adding flit 80475 as NACK at time 2323
Additional hops: 3430
Adding flit 72321 as NACK at time 2326
Reenqueueing errored packet 71447 at time 2330
Additional hops: 3439
Adding flit 55936 as NACK at time 2332
Additional hops: 3445
Adding flit 74777 as NACK at time 2332
Reenqueueing errored packet 99452 at time 2333
Additional hops: 3455
Adding flit 49027 as NACK at time 2333
Reenqueueing errored packet 72321 at time 2337
Reenqueueing errored packet 80475 at time 2338
Additional hops: 3458
Adding flit 93451 as NACK at time 2338
Reenqueueing errored packet 93451 at time 2345
Reenqueueing errored packet 74777 at time 2345
Additional hops: 3465
Adding flit 89897 as NACK at time 2346
Additional hops: 3473
Adding flit 61301 as NACK at time 2346
Reenqueueing errored packet 55936 at time 2351
Reenqueueing errored packet 49027 at time 2354
Additional hops: 3482
Adding flit 71228 as NACK at time 2356
Additional hops: 3485
Adding flit 92711 as NACK at time 2358
Reenqueueing errored packet 89897 at time 2361
Additional hops: 3498
Adding flit 47145 as NACK at time 2361
Reenqueueing errored packet 61301 at time 2363
Reenqueueing errored packet 92711 at time 2365
Reenqueueing errored packet 71228 at time 2375
Additional hops: 3507
Adding flit 76487 as NACK at time 2376
Additional hops: 3517
Adding flit 53814 as NACK at time 2379
Additional hops: 3525
Adding flit 61917 as NACK at time 2386
Reenqueueing errored packet 47145 at time 2388
Additional hops: 3535
Adding flit 43378 as NACK at time 2394
Reenqueueing errored packet 76487 at time 2395
Additional hops: 3538
Adding flit 91466 as NACK at time 2395
Additional hops: 3542
Adding flit 72767 as NACK at time 2396
Additional hops: 3549
Adding flit 93211 as NACK at time 2396
Additional hops: 3553
Adding flit 119058 as NACK at time 2398
Additional hops: 3558
Adding flit 72719 as NACK at time 2399
Reenqueueing errored packet 53814 at time 2400
Additional hops: 3564
Adding flit 82087 as NACK at time 2401
Reenqueueing errored packet 91466 at time 2402
Reenqueueing errored packet 61917 at time 2403
Reenqueueing errored packet 72767 at time 2405
Reenqueueing errored packet 119058 at time 2407
Additional hops: 3570
Adding flit 99482 as NACK at time 2409
Reenqueueing errored packet 72719 at time 2410
Reenqueueing errored packet 93211 at time 2411
Reenqueueing errored packet 82087 at time 2414
Additional hops: 3574
Adding flit 108744 as NACK at time 2414
Additional hops: 3578
Adding flit 119271 as NACK at time 2414
Reenqueueing errored packet 43378 at time 2415
Additional hops: 3588
Adding flit 81821 as NACK at time 2416
Additional hops: 3597
Adding flit 55067 as NACK at time 2417
Additional hops: 3605
Adding flit 54719 as NACK at time 2420
Additional hops: 3609
Adding flit 74329 as NACK at time 2420
Reenqueueing errored packet 99482 at time 2422
Reenqueueing errored packet 119271 at time 2423
Reenqueueing errored packet 108744 at time 2423
Reenqueueing errored packet 74329 at time 2429
Reenqueueing errored packet 55067 at time 2436
Reenqueueing errored packet 54719 at time 2437
Reenqueueing errored packet 81821 at time 2437
Additional hops: 3618
Adding flit 54248 as NACK at time 2437
Additional hops: 3629
Adding flit 74537 as NACK at time 2441
Additional hops: 3638
Adding flit 54616 as NACK at time 2449
Additional hops: 3641
Adding flit 82849 as NACK at time 2453
Reenqueueing errored packet 54248 at time 2456
Reenqueueing errored packet 82849 at time 2460
Additional hops: 3648
Adding flit 78465 as NACK at time 2460
Additional hops: 3659
Adding flit 50343 as NACK at time 2461
Additional hops: 3663
Adding flit 73979 as NACK at time 2462
Additional hops: 3671
Adding flit 93521 as NACK at time 2462
Reenqueueing errored packet 74537 at time 2464
Additional hops: 3676
Adding flit 72768 as NACK at time 2466
Reenqueueing errored packet 54616 at time 2468
Additional hops: 3685
Adding flit 79644 as NACK at time 2470
Reenqueueing errored packet 73979 at time 2471
Additional hops: 3691
Adding flit 94746 as NACK at time 2472
Reenqueueing errored packet 78465 at time 2475
Reenqueueing errored packet 72768 at time 2477
Additional hops: 3696
Adding flit 83644 as NACK at time 2478
Reenqueueing errored packet 93521 at time 2479
Additional hops: 3704
Adding flit 79928 as NACK at time 2482
Reenqueueing errored packet 50343 at time 2484
Reenqueueing errored packet 94746 at time 2485
Reenqueueing errored packet 83644 at time 2489
Reenqueueing errored packet 79644 at time 2489
Additional hops: 3709
Adding flit 119892 as NACK at time 2489
Additional hops: 3713
Adding flit 79649 as NACK at time 2492
Additional hops: 3721
Adding flit 54016 as NACK at time 2493
Additional hops: 3729
Adding flit 95118 as NACK at time 2498
Additional hops: 3731
Adding flit 110947 as NACK at time 2498
Additional hops: 3739
Adding flit 84835 as NACK at time 2498
Reenqueueing errored packet 79928 at time 2499
Reenqueueing errored packet 119892 at time 2500
Additional hops: 3748
Adding flit 57071 as NACK at time 2500
Reenqueueing errored packet 79649 at time 2501
Reenqueueing errored packet 110947 at time 2503
Additional hops: 3759
Adding flit 60455 as NACK at time 2505
Additional hops: 3765
Adding flit 61358 as NACK at time 2506
Additional hops: 3773
Adding flit 94233 as NACK at time 2508
Additional hops: 3780
Adding flit 58347 as NACK at time 2509
Additional hops: 3788
Adding flit 72934 as NACK at time 2509
Reenqueueing errored packet 54016 at time 2510
Additional hops: 3796
Adding flit 60873 as NACK at time 2514
Additional hops: 3798
Adding flit 105146 as NACK at time 2514
Reenqueueing errored packet 84835 at time 2515
Reenqueueing errored packet 95118 at time 2515
Additional hops: 3804
Adding flit 75980 as NACK at time 2517
Additional hops: 3812
Adding flit 96740 as NACK at time 2518
Reenqueueing errored packet 105146 at time 2519
Reenqueueing errored packet 61358 at time 2519
Reenqueueing errored packet 57071 at time 2519
Additional hops: 3822
Adding flit 46740 as NACK at time 2523
Reenqueueing errored packet 58347 at time 2524
Reenqueueing errored packet 94233 at time 2525
Reenqueueing errored packet 72934 at time 2526
Reenqueueing errored packet 60455 at time 2528
Reenqueueing errored packet 75980 at time 2530
Reenqueueing errored packet 60873 at time 2531
Additional hops: 3827
Adding flit 97921 as NACK at time 2531
Reenqueueing errored packet 96740 at time 2535
Additional hops: 3833
Adding flit 79411 as NACK at time 2537
Additional hops: 3843
Adding flit 50139 as NACK at time 2540
Reenqueueing errored packet 97921 at time 2542
Additional hops: 3849
Adding flit 76305 as NACK at time 2542
Reenqueueing errored packet 46740 at time 2544
Additional hops: 3859
Adding flit 93980 as NACK at time 2544
Additional hops: 3872
Adding flit 48711 as NACK at time 2547
Reenqueueing errored packet 79411 at time 2550
Additional hops: 3878
Adding flit 70659 as NACK at time 2551
Additional hops: 3880
Adding flit 129720 as NACK at time 2552
Additional hops: 3889
Adding flit 65962 as NACK at time 2553
Reenqueueing errored packet 76305 at time 2555
Reenqueueing errored packet 129720 at time 2557
Additional hops: 3900
Adding flit 79306 as NACK at time 2557
Reenqueueing errored packet 50139 at time 2561
Additional hops: 3906
Adding flit 65931 as NACK at time 2563
Reenqueueing errored packet 70659 at time 2564
Reenqueueing errored packet 93980 at time 2565
Additional hops: 3916
Adding flit 98436 as NACK at time 2565
Additional hops: 3922
Adding flit 64559 as NACK at time 2571
Reenqueueing errored packet 65962 at time 2572
Reenqueueing errored packet 48711 at time 2574
Reenqueueing errored packet 65931 at time 2576
Additional hops: 3928
Adding flit 105678 as NACK at time 2579
Reenqueueing errored packet 79306 at time 2580
Additional hops: 3938
Adding flit 88596 as NACK at time 2582
Reenqueueing errored packet 64559 at time 2584
Additional hops: 3940
Adding flit 112945 as NACK at time 2584
Additional hops: 3943
Adding flit 99028 as NACK at time 2585
Reenqueueing errored packet 98436 at time 2586
Additional hops: 3953
Adding flit 83761 as NACK at time 2587
Reenqueueing errored packet 112945 at time 2589
Additional hops: 3957
Adding flit 125887 as NACK at time 2589
Additional hops: 3964
Adding flit 119559 as NACK at time 2590
Additional hops: 3976
Adding flit 51064 as NACK at time 2590
Reenqueueing errored packet 99028 at time 2592
Reenqueueing errored packet 105678 at time 2592
Additional hops: 3983
Adding flit 107307 as NACK at time 2595
Reenqueueing errored packet 125887 at time 2598
Additional hops: 3987
Adding flit 82137 as NACK at time 2598
Additional hops: 3990
Adding flit 104030 as NACK at time 2599
Additional hops: 3993
Adding flit 110033 as NACK at time 2600
Reenqueueing errored packet 88596 at time 2603
Reenqueueing errored packet 119559 at time 2605
Reenqueueing errored packet 104030 at time 2606
Reenqueueing errored packet 110033 at time 2607
Reenqueueing errored packet 82137 at time 2607
Reenqueueing errored packet 83761 at time 2608
Reenqueueing errored packet 107307 at time 2610
Additional hops: 4000
Adding flit 101327 as NACK at time 2610
Additional hops: 4006
Adding flit 120686 as NACK at time 2613
Reenqueueing errored packet 51064 at time 2615
Additional hops: 4017
Adding flit 61611 as NACK at time 2621
Reenqueueing errored packet 101327 at time 2625
Reenqueueing errored packet 120686 at time 2626
Additional hops: 4026
Adding flit 61235 as NACK at time 2626
Additional hops: 4031
Adding flit 83664 as NACK at time 2628
Reenqueueing errored packet 83664 at time 2639
Additional hops: 4037
Adding flit 66102 as NACK at time 2639
Additional hops: 4045
Adding flit 60075 as NACK at time 2641
Reenqueueing errored packet 61611 at time 2644
Reenqueueing errored packet 61235 at time 2645
Additional hops: 4055
Adding flit 63141 as NACK at time 2647
Additional hops: 4064
Adding flit 82237 as NACK at time 2651
Reenqueueing errored packet 66102 at time 2652
Additional hops: 4068
Adding flit 92853 as NACK at time 2656
Additional hops: 4072
Adding flit 99796 as NACK at time 2656
Reenqueueing errored packet 60075 at time 2658
Additional hops: 4077
Adding flit 115328 as NACK at time 2662
Reenqueueing errored packet 99796 at time 2665
Reenqueueing errored packet 92853 at time 2665
Additional hops: 4087
Adding flit 49003 as NACK at time 2666
Additional hops: 4096
Adding flit 60198 as NACK at time 2667
Additional hops: 4105
Adding flit 79788 as NACK at time 2667
Reenqueueing errored packet 63141 at time 2668
Reenqueueing errored packet 82237 at time 2670
Additional hops: 4109
Adding flit 114886 as NACK at time 2671
Reenqueueing errored packet 115328 at time 2673
Additional hops: 4114
Adding flit 129195 as NACK at time 2676
Additional hops: 4128
Adding flit 50767 as NACK at time 2679
Reenqueueing errored packet 114886 at time 2680
Additional hops: 4135
Adding flit 64650 as NACK at time 2683
Additional hops: 4139
Adding flit 116043 as NACK at time 2684
Reenqueueing errored packet 79788 at time 2686
Reenqueueing errored packet 60198 at time 2686
Reenqueueing errored packet 129195 at time 2687
Reenqueueing errored packet 49003 at time 2687
Reenqueueing errored packet 116043 at time 2693
Additional hops: 4152
Adding flit 63343 as NACK at time 2693
Reenqueueing errored packet 64650 at time 2698
Additional hops: 4160
Adding flit 61444 as NACK at time 2698
Additional hops: 4172
Adding flit 51152 as NACK at time 2698
Additional hops: 4174
Adding flit 137077 as NACK at time 2699
Additional hops: 4176
Adding flit 114578 as NACK at time 2700
Additional hops: 4180
Adding flit 97193 as NACK at time 2702
Reenqueueing errored packet 137077 at time 2704
Reenqueueing errored packet 114578 at time 2705
Additional hops: 4190
Adding flit 59306 as NACK at time 2707
Reenqueueing errored packet 50767 at time 2708
Additional hops: 4197
Adding flit 101805 as NACK at time 2710
Reenqueueing errored packet 97193 at time 2711
Additional hops: 4206
Adding flit 84649 as NACK at time 2713
Reenqueueing errored packet 61444 at time 2715
Additional hops: 4216
Adding flit 57481 as NACK at time 2716
Reenqueueing errored packet 63343 at time 2720
Reenqueueing errored packet 51152 at time 2723
Additional hops: 4223
Adding flit 67580 as NACK at time 2724
Reenqueueing errored packet 101805 at time 2725
Additional hops: 4230
Adding flit 108827 as NACK at time 2725
Additional hops: 4235
Adding flit 100850 as NACK at time 2727
Reenqueueing errored packet 59306 at time 2728
Additional hops: 4241
Adding flit 117451 as NACK at time 2731
Additional hops: 4246
Adding flit 109083 as NACK at time 2731
Reenqueueing errored packet 84649 at time 2732
Additional hops: 4252
Adding flit 116549 as NACK at time 2734
Reenqueueing errored packet 57481 at time 2737
Reenqueueing errored packet 100850 at time 2738
Reenqueueing errored packet 67580 at time 2739
Reenqueueing errored packet 108827 at time 2740
Additional hops: 4262
Adding flit 79700 as NACK at time 2741
Reenqueueing errored packet 109083 at time 2742
Reenqueueing errored packet 117451 at time 2744
Additional hops: 4264
Adding flit 119111 as NACK at time 2744
Additional hops: 4267
Adding flit 136272 as NACK at time 2744
Reenqueueing errored packet 116549 at time 2747
Reenqueueing errored packet 119111 at time 2749
Reenqueueing errored packet 136272 at time 2751
Additional hops: 4272
Adding flit 107521 as NACK at time 2752
Additional hops: 4276
Adding flit 132567 as NACK at time 2755
Additional hops: 4284
Adding flit 70067 as NACK at time 2756
Additional hops: 4288
Adding flit 96228 as NACK at time 2759
Additional hops: 4296
Adding flit 69883 as NACK at time 2761
Reenqueueing errored packet 79700 at time 2762
Reenqueueing errored packet 107521 at time 2763
Reenqueueing errored packet 132567 at time 2764
Additional hops: 4299
Adding flit 110717 as NACK at time 2765
Reenqueueing errored packet 96228 at time 2768
Reenqueueing errored packet 110717 at time 2772
Reenqueueing errored packet 70067 at time 2773
Additional hops: 4306
Adding flit 76940 as NACK at time 2773
Reenqueueing errored packet 69883 at time 2778
Additional hops: 4318
Adding flit 56971 as NACK at time 2778
Additional hops: 4328
Adding flit 65428 as NACK at time 2779
Additional hops: 4334
Adding flit 129472 as NACK at time 2781
Additional hops: 4336
Adding flit 141630 as NACK at time 2782
Additional hops: 4342
Adding flit 114022 as NACK at time 2786
Reenqueueing errored packet 141630 at time 2787
Reenqueueing errored packet 76940 at time 2788
Additional hops: 4352
Adding flit 104218 as NACK at time 2789
Additional hops: 4361
Adding flit 107538 as NACK at time 2793
Reenqueueing errored packet 129472 at time 2794
Additional hops: 4364
Adding flit 128750 as NACK at time 2795
Reenqueueing errored packet 114022 at time 2799
Reenqueueing errored packet 65428 at time 2800
Reenqueueing errored packet 128750 at time 2802
Reenqueueing errored packet 56971 at time 2803
Additional hops: 4373
Adding flit 101386 as NACK at time 2804
Additional hops: 4382
Adding flit 68224 as NACK at time 2807
Reenqueueing errored packet 104218 at time 2810
Reenqueueing errored packet 107538 at time 2812
Additional hops: 4388
Adding flit 131453 as NACK at time 2814
Additional hops: 4397
Adding flit 96747 as NACK at time 2814
Additional hops: 4404
Adding flit 64484 as NACK at time 2815
Reenqueueing errored packet 101386 at time 2823
Additional hops: 4411
Adding flit 78655 as NACK at time 2823
Additional hops: 4419
Adding flit 85439 as NACK at time 2824
Additional hops: 4428
Adding flit 103595 as NACK at time 2824
Reenqueueing errored packet 68224 at time 2826
Reenqueueing errored packet 131453 at time 2827
Additional hops: 4437
Adding flit 98185 as NACK at time 2829
Reenqueueing errored packet 64484 at time 2830
Reenqueueing errored packet 96747 at time 2833
Additional hops: 4442
Adding flit 141749 as NACK at time 2833
Reenqueueing errored packet 78655 at time 2838
Additional hops: 4454
Adding flit 59551 as NACK at time 2839
Reenqueueing errored packet 85439 at time 2841
Reenqueueing errored packet 103595 at time 2843
Reenqueueing errored packet 141749 at time 2844
Additional hops: 4457
Adding flit 141934 as NACK at time 2845
Reenqueueing errored packet 98185 at time 2848
Reenqueueing errored packet 141934 at time 2852
Additional hops: 4463
Adding flit 104034 as NACK at time 2861
Additional hops: 4476
Adding flit 52481 as NACK at time 2863
Reenqueueing errored packet 59551 at time 2864
Additional hops: 4485
Adding flit 69648 as NACK at time 2864
Additional hops: 4491
Adding flit 135753 as NACK at time 2865
Additional hops: 4499
Adding flit 132861 as NACK at time 2866
Additional hops: 4503
Adding flit 92746 as NACK at time 2866
Additional hops: 4515
Adding flit 58873 as NACK at time 2866
Additional hops: 4522
Adding flit 89113 as NACK at time 2868
Reenqueueing errored packet 104034 at time 2874
Additional hops: 4533
Adding flit 66525 as NACK at time 2874
Reenqueueing errored packet 92746 at time 2875
Additional hops: 4535
Adding flit 111346 as NACK at time 2875
Additional hops: 4538
Adding flit 98475 as NACK at time 2877
Reenqueueing errored packet 135753 at time 2878
Reenqueueing errored packet 111346 at time 2880
Reenqueueing errored packet 89113 at time 2883
Reenqueueing errored packet 132861 at time 2883
Reenqueueing errored packet 69648 at time 2883
Reenqueueing errored packet 98475 at time 2884
Additional hops: 4543
Adding flit 73415 as NACK at time 2884
Additional hops: 4551
Adding flit 90290 as NACK at time 2885
Additional hops: 4556
Adding flit 125684 as NACK at time 2888
Additional hops: 4565
Adding flit 90895 as NACK at time 2888
Reenqueueing errored packet 52481 at time 2890
Additional hops: 4583
Adding flit 34713 as NACK at time 2890
Additional hops: 4588
Adding flit 139896 as NACK at time 2890
Reenqueueing errored packet 58873 at time 2891
Additional hops: 4593
Adding flit 114067 as NACK at time 2891
Reenqueueing errored packet 73415 at time 2895
Reenqueueing errored packet 66525 at time 2897
Additional hops: 4602
Adding flit 110493 as NACK at time 2897
Reenqueueing errored packet 125684 at time 2899
Reenqueueing errored packet 139896 at time 2901
Reenqueueing errored packet 114067 at time 2902
Reenqueueing errored packet 90290 at time 2902
Additional hops: 4611
Adding flit 57950 as NACK at time 2902
Reenqueueing errored packet 90895 at time 2907
Additional hops: 4617
Adding flit 113629 as NACK at time 2909
Additional hops: 4621
Adding flit 125808 as NACK at time 2909
Additional hops: 4629
Adding flit 127271 as NACK at time 2914
Reenqueueing errored packet 110493 at time 2916
Reenqueueing errored packet 125808 at time 2918
Additional hops: 4636
Adding flit 109712 as NACK at time 2920
Additional hops: 4641
Adding flit 140376 as NACK at time 2920
Reenqueueing errored packet 57950 at time 2921
Reenqueueing errored packet 113629 at time 2922
Additional hops: 4647
Adding flit 139297 as NACK at time 2922
Reenqueueing errored packet 34713 at time 2927
Reenqueueing errored packet 140376 at time 2931
Reenqueueing errored packet 127271 at time 2931
Reenqueueing errored packet 139297 at time 2935
Reenqueueing errored packet 109712 at time 2935
Additional hops: 4649
Adding flit 139570 as NACK at time 2937
Additional hops: 4656
Adding flit 113839 as NACK at time 2937
Additional hops: 4661
Adding flit 127538 as NACK at time 2940
Reenqueueing errored packet 139570 at time 2942
Additional hops: 4666
Adding flit 106594 as NACK at time 2944
Additional hops: 4669
Adding flit 120512 as NACK at time 2945
Additional hops: 4677
Adding flit 87334 as NACK at time 2946
Additional hops: 4680
Adding flit 141884 as NACK at time 2946
Additional hops: 4684
Adding flit 133268 as NACK at time 2947
Reenqueueing errored packet 127538 at time 2951
Additional hops: 4696
Adding flit 56550 as NACK at time 2951
Reenqueueing errored packet 120512 at time 2952
Reenqueueing errored packet 113839 at time 2952
Reenqueueing errored packet 141884 at time 2953
Reenqueueing errored packet 106594 at time 2955
Reenqueueing errored packet 133268 at time 2956
Additional hops: 4705
Adding flit 104050 as NACK at time 2958
Reenqueueing errored packet 87334 at time 2963
Additional hops: 4712
Adding flit 72300 as NACK at time 2963
Additional hops: 4716
Adding flit 142666 as NACK at time 2964
Additional hops: 4721
Adding flit 120722 as NACK at time 2968
Reenqueueing errored packet 142666 at time 2973
Additional hops: 4725
Adding flit 120034 as NACK at time 2974
Reenqueueing errored packet 56550 at time 2976
Reenqueueing errored packet 104050 at time 2977
Reenqueueing errored packet 72300 at time 2978
Reenqueueing errored packet 120722 at time 2979
Additional hops: 4733
Adding flit 69710 as NACK at time 2979
Additional hops: 4738
Adding flit 88929 as NACK at time 2981
Reenqueueing errored packet 120034 at time 2983
Additional hops: 4744
Adding flit 116551 as NACK at time 2984
Additional hops: 4755
Adding flit 71952 as NACK at time 2987
Additional hops: 4763
Adding flit 97819 as NACK at time 2990
Additional hops: 4770
Adding flit 120363 as NACK at time 2990
Additional hops: 4780
Adding flit 93675 as NACK at time 2991
Reenqueueing errored packet 88929 at time 2992
Additional hops: 4785
Adding flit 131425 as NACK at time 2995
Reenqueueing errored packet 116551 at time 2997
Additional hops: 4795
Adding flit 55318 as NACK at time 2998
Additional hops: 4799
Adding flit 130907 as NACK at time 2999
Reenqueueing errored packet 120363 at time 3005
Reenqueueing errored packet 131425 at time 3006
Reenqueueing errored packet 97819 at time 3007
Reenqueueing errored packet 130907 at time 3008
Reenqueueing errored packet 71952 at time 3010
Reenqueueing errored packet 93675 at time 3012
Additional hops: 4806
Adding flit 94001 as NACK at time 3012
Additional hops: 4812
Adding flit 129502 as NACK at time 3015
Additional hops: 4821
Adding flit 71733 as NACK at time 3022
Reenqueueing errored packet 94001 at time 3027
Reenqueueing errored packet 129502 at time 3028
Additional hops: 4830
Adding flit 98576 as NACK at time 3031
Reenqueueing errored packet 71733 at time 3041
Additional hops: 4841
Adding flit 72158 as NACK at time 3041
Additional hops: 4846
Adding flit 77076 as NACK at time 3043
Additional hops: 4853
Adding flit 94152 as NACK at time 3049
Reenqueueing errored packet 98576 at time 3050
Reenqueueing errored packet 77076 at time 3054
Additional hops: 4858
Adding flit 122571 as NACK at time 3055
Additional hops: 4864
Adding flit 143282 as NACK at time 3055
Additional hops: 4875
Adding flit 62372 as NACK at time 3062
Reenqueueing errored packet 94152 at time 3064
Reenqueueing errored packet 72158 at time 3064
Reenqueueing errored packet 122571 at time 3066
Reenqueueing errored packet 143282 at time 3068
Additional hops: 4885
Adding flit 71396 as NACK at time 3069
Additional hops: 4894
Adding flit 70213 as NACK at time 3074
Additional hops: 4901
Adding flit 85073 as NACK at time 3076
Additional hops: 4906
Adding flit 97115 as NACK at time 3077
Additional hops: 4912
Adding flit 112689 as NACK at time 3078
Additional hops: 4921
Adding flit 114028 as NACK at time 3080
Reenqueueing errored packet 62372 at time 3085
Reenqueueing errored packet 97115 at time 3088
Reenqueueing errored packet 112689 at time 3091
Reenqueueing errored packet 85073 at time 3091
Reenqueueing errored packet 114028 at time 3099
Additional hops: 4930
Adding flit 100111 as NACK at time 3100
Additional hops: 4940
Adding flit 92846 as NACK at time 3107
Additional hops: 4944
Adding flit 130215 as NACK at time 3109
[...]
Adding flit 270397 as NACK at time 9015
Additional hops: 14492
Adding flit 312773 as NACK at time 9024
Additional hops: 14502
Adding flit 197402 as NACK at time 9025
Additional hops: 14513
Adding flit 271770 as NACK at time 9029
Additional hops: 14519
Adding flit 280342 as NACK at time 9029
Reenqueueing errored packet 333771 at time 9030
Additional hops: 14525
Adding flit 322096 as NACK at time 9033
Additional hops: 14532
Adding flit 186297 as NACK at time 9043
Additional hops: 14541
Adding flit 211599 as NACK at time 9044
Reenqueueing errored packet 312773 at time 9045
Reenqueueing errored packet 322096 at time 9046
Additional hops: 14551
Adding flit 209615 as NACK at time 9049
Reenqueueing errored packet 271770 at time 9052
Additional hops: 14569
Adding flit 263621 as NACK at time 9054
Additional hops: 14571
Adding flit 311437 as NACK at time 9056
Reenqueueing errored packet 186297 at time 9058
Reenqueueing errored packet 311437 at time 9061
Additional hops: 14582
Adding flit 190327 as NACK at time 9063
Additional hops: 14588
Adding flit 230564 as NACK at time 9064
Additional hops: 14599
Adding flit 225402 as NACK at time 9065
Additional hops: 14607
Adding flit 352187 as NACK at time 9066
Additional hops: 14614
Adding flit 280388 as NACK at time 9068
Reenqueueing errored packet 352187 at time 9083
Additional hops: 14618
Adding flit 258235 as NACK at time 9084
Additional hops: 14624
Adding flit 184773 as NACK at time 9089
Additional hops: 14629
Adding flit 331373 as NACK at time 9090
Reenqueueing errored packet 263621 at time 9091
Additional hops: 14638
Adding flit 272325 as NACK at time 9091
Reenqueueing errored packet 258235 at time 9093
Additional hops: 14641
Adding flit 279567 as NACK at time 9096
Reenqueueing errored packet 331373 at time 9101
Reenqueueing errored packet 272325 at time 9110
Additional hops: 14647
Adding flit 335535 as NACK at time 9124
Additional hops: 14654
Adding flit 343043 as NACK at time 9125
Additional hops: 14658
Adding flit 278017 as NACK at time 9129
Reenqueueing errored packet 335535 at time 9137
Reenqueueing errored packet 343043 at time 9140
Additional hops: 14666
Adding flit 339096 as NACK at time 9142
Additional hops: 14675
Adding flit 324713 as NACK at time 9150
Additional hops: 14677
Adding flit 347993 as NACK at time 9150
Reenqueueing errored packet 347993 at time 9155
Additional hops: 14683
Adding flit 300180 as NACK at time 9155
Additional hops: 14689
Adding flit 349907 as NACK at time 9158
Reenqueueing errored packet 339096 at time 9159
Additional hops: 14694
Adding flit 303924 as NACK at time 9160
Additional hops: 14703
Adding flit 338999 as NACK at time 9164
Reenqueueing errored packet 324713 at time 9169
Reenqueueing errored packet 349907 at time 9171
Additional hops: 14710
Adding flit 220699 as NACK at time 9173
Additional hops: 14718
Adding flit 285311 as NACK at time 9176
Additional hops: 14724
Adding flit 335352 as NACK at time 9181
Reenqueueing errored packet 338999 at time 9183
Additional hops: 14728
Adding flit 287760 as NACK at time 9186
Additional hops: 14733
Adding flit 337430 as NACK at time 9187
Reenqueueing errored packet 285311 at time 9193
Reenqueueing errored packet 335352 at time 9194
Reenqueueing errored packet 337430 at time 9198
Additional hops: 14742
Adding flit 183198 as NACK at time 9199
Additional hops: 14755
Adding flit 205215 as NACK at time 9200
Additional hops: 14764
Adding flit 323408 as NACK at time 9205
Additional hops: 14776
Adding flit 176773 as NACK at time 9218
Reenqueueing errored packet 323408 at time 9224
Additional hops: 14782
Adding flit 220878 as NACK at time 9227
Additional hops: 14788
Adding flit 296709 as NACK at time 9227
Additional hops: 14794
Adding flit 326095 as NACK at time 9229
Additional hops: 14802
Adding flit 328994 as NACK at time 9232
Additional hops: 14809
Adding flit 198018 as NACK at time 9233
Reenqueueing errored packet 296709 at time 9240
Reenqueueing errored packet 326095 at time 9242
Reenqueueing errored packet 176773 at time 9243
Additional hops: 14817
Adding flit 213324 as NACK at time 9246
Reenqueueing errored packet 328994 at time 9249
Additional hops: 14826
Adding flit 288525 as NACK at time 9258
Additional hops: 14835
Adding flit 190160 as NACK at time 9262
Reenqueueing errored packet 213324 at time 9263
Additional hops: 14845
Adding flit 326408 as NACK at time 9266
Additional hops: 14855
Adding flit 336787 as NACK at time 9276
Reenqueueing errored packet 288525 at time 9277
Additional hops: 14863
Adding flit 271982 as NACK at time 9281
Reenqueueing errored packet 326408 at time 9287
Additional hops: 14868
Adding flit 300955 as NACK at time 9291
Additional hops: 14874
Adding flit 308312 as NACK at time 9292
Additional hops: 14878
Adding flit 291035 as NACK at time 9296
Reenqueueing errored packet 336787 at time 9297
Additional hops: 14882
Adding flit 340238 as NACK at time 9299
Reenqueueing errored packet 340238 at time 9308
Additional hops: 14887
Adding flit 355102 as NACK at time 9311
Additional hops: 14895
Adding flit 225091 as NACK at time 9315
Additional hops: 14900
Adding flit 346570 as NACK at time 9319
Additional hops: 14910
Adding flit 207392 as NACK at time 9320
Additional hops: 14914
Adding flit 289144 as NACK at time 9320
Additional hops: 14924
Adding flit 344197 as NACK at time 9320
Reenqueueing errored packet 355102 at time 9322
Reenqueueing errored packet 289144 at time 9329
Reenqueueing errored packet 346570 at time 9330
Additional hops: 14926
Adding flit 368458 as NACK at time 9334
Additional hops: 14931
Adding flit 355596 as NACK at time 9335
Reenqueueing errored packet 368458 at time 9339
Additional hops: 14937
Adding flit 304591 as NACK at time 9339
Additional hops: 14944
Adding flit 347185 as NACK at time 9340
Reenqueueing errored packet 344197 at time 9341
Reenqueueing errored packet 207392 at time 9341
Additional hops: 14951
Adding flit 343566 as NACK at time 9345
Reenqueueing errored packet 355596 at time 9346
Additional hops: 14961
Adding flit 335875 as NACK at time 9354
Reenqueueing errored packet 347185 at time 9355
Reenqueueing errored packet 343566 at time 9360
Additional hops: 14967
Adding flit 366059 as NACK at time 9361
Reenqueueing errored packet 366059 at time 9374
Reenqueueing errored packet 335875 at time 9375
Additional hops: 14975
Adding flit 233885 as NACK at time 9381
Additional hops: 14980
Adding flit 334014 as NACK at time 9384
Additional hops: 14987
Adding flit 292616 as NACK at time 9386
Additional hops: 14991
Adding flit 341148 as NACK at time 9387
Additional hops: 14999
Adding flit 347318 as NACK at time 9388
Additional hops: 15004
Adding flit 356843 as NACK at time 9390
Additional hops: 15010
Adding flit 359453 as NACK at time 9394
Reenqueueing errored packet 334014 at time 9395
Reenqueueing errored packet 341148 at time 9396
Additional hops: 15019
Adding flit 347164 as NACK at time 9398
Additional hops: 15028
Adding flit 298590 as NACK at time 9399
Reenqueueing errored packet 356843 at time 9401
Reenqueueing errored packet 292616 at time 9401
Additional hops: 15035
Adding flit 331209 as NACK at time 9401
Reenqueueing errored packet 347318 at time 9405
Reenqueueing errored packet 359453 at time 9407
Additional hops: 15045
Adding flit 284180 as NACK at time 9409
Reenqueueing errored packet 331209 at time 9416
Reenqueueing errored packet 347164 at time 9417
Reenqueueing errored packet 284180 at time 9430
Additional hops: 15051
Adding flit 320123 as NACK at time 9434
Additional hops: 15058
Adding flit 355857 as NACK at time 9436
Additional hops: 15062
Adding flit 344546 as NACK at time 9441
Additional hops: 15072
Adding flit 233840 as NACK at time 9444
Reenqueueing errored packet 320123 at time 9447
Additional hops: 15078
Adding flit 315848 as NACK at time 9448
Reenqueueing errored packet 344546 at time 9450
Additional hops: 15083
Adding flit 319663 as NACK at time 9450
Reenqueueing errored packet 355857 at time 9451
Additional hops: 15089
Adding flit 285855 as NACK at time 9459
Reenqueueing errored packet 319663 at time 9461
Reenqueueing errored packet 315848 at time 9461
Additional hops: 15097
Adding flit 333057 as NACK at time 9461
Additional hops: 15102
Adding flit 291571 as NACK at time 9464
Reenqueueing errored packet 233840 at time 9465
Additional hops: 15111
Adding flit 239863 as NACK at time 9468
Additional hops: 15126
Adding flit 182352 as NACK at time 9470
Additional hops: 15137
Adding flit 186515 as NACK at time 9471
Reenqueueing errored packet 285855 at time 9472
Reenqueueing errored packet 291571 at time 9475
Reenqueueing errored packet 333057 at time 9478
Additional hops: 15141
Adding flit 297862 as NACK at time 9495
Additional hops: 15145
Adding flit 356711 as NACK at time 9497
Additional hops: 15152
Adding flit 305082 as NACK at time 9501
Reenqueueing errored packet 356711 at time 9506
Additional hops: 15162
Adding flit 191665 as NACK at time 9510
Additional hops: 15167
Adding flit 324111 as NACK at time 9523
Additional hops: 15174
Adding flit 343005 as NACK at time 9526
Additional hops: 15178
Adding flit 266086 as NACK at time 9526
Additional hops: 15187
Adding flit 198925 as NACK at time 9534
Additional hops: 15195
Adding flit 299168 as NACK at time 9535
Additional hops: 15203
Adding flit 347761 as NACK at time 9535
Additional hops: 15212
Adding flit 290542 as NACK at time 9538
Reenqueueing errored packet 343005 at time 9541
Additional hops: 15223
Adding flit 331197 as NACK at time 9542
Additional hops: 15232
Adding flit 190012 as NACK at time 9543
Additional hops: 15239
Adding flit 336406 as NACK at time 9545
Additional hops: 15245
Adding flit 293593 as NACK at time 9546
Additional hops: 15250
Adding flit 313784 as NACK at time 9548
Additional hops: 15255
Adding flit 205076 as NACK at time 9551
Reenqueueing errored packet 347761 at time 9552
Reenqueueing errored packet 299168 at time 9552
Reenqueueing errored packet 290542 at time 9557
Additional hops: 15259
Adding flit 362475 as NACK at time 9559
Reenqueueing errored packet 336406 at time 9560
Additional hops: 15264
Adding flit 346342 as NACK at time 9564
Reenqueueing errored packet 331197 at time 9565
Reenqueueing errored packet 362475 at time 9568
Additional hops: 15268
Adding flit 349100 as NACK at time 9570
Additional hops: 15280
Adding flit 228244 as NACK at time 9574
Reenqueueing errored packet 346342 at time 9575
Additional hops: 15285
Adding flit 292724 as NACK at time 9577
Reenqueueing errored packet 349100 at time 9579
Reenqueueing errored packet 292724 at time 9588
Additional hops: 15290
Adding flit 347486 as NACK at time 9606
Additional hops: 15299
Adding flit 356782 as NACK at time 9607
Additional hops: 15305
Adding flit 298148 as NACK at time 9611
Additional hops: 15313
Adding flit 356965 as NACK at time 9614
Reenqueueing errored packet 347486 at time 9617
Additional hops: 15317
Adding flit 329712 as NACK at time 9621
Additional hops: 15326
Adding flit 333302 as NACK at time 9623
Additional hops: 15331
Adding flit 369880 as NACK at time 9624
Reenqueueing errored packet 356782 at time 9626
Additional hops: 15340
Adding flit 231770 as NACK at time 9627
Reenqueueing errored packet 329712 at time 9630
Additional hops: 15348
Adding flit 350820 as NACK at time 9630
Reenqueueing errored packet 356965 at time 9631
Additional hops: 15354
Adding flit 299048 as NACK at time 9632
Additional hops: 15356
Adding flit 363363 as NACK at time 9633
Reenqueueing errored packet 369880 at time 9635
Additional hops: 15363
Adding flit 348686 as NACK at time 9635
Additional hops: 15367
Adding flit 268481 as NACK at time 9635
Reenqueueing errored packet 363363 at time 9638
Additional hops: 15371
Adding flit 351941 as NACK at time 9641
Reenqueueing errored packet 333302 at time 9642
Additional hops: 15374
Adding flit 365324 as NACK at time 9646
Reenqueueing errored packet 350820 at time 9647
Additional hops: 15380
Adding flit 301604 as NACK at time 9647
Additional hops: 15387
Adding flit 193097 as NACK at time 9648
Reenqueueing errored packet 348686 at time 9650
Additional hops: 15397
Adding flit 331052 as NACK at time 9652
Reenqueueing errored packet 365324 at time 9653
Reenqueueing errored packet 301604 at time 9660
Additional hops: 15405
Adding flit 344407 as NACK at time 9660
Additional hops: 15411
Adding flit 376525 as NACK at time 9663
Additional hops: 15417
Adding flit 226678 as NACK at time 9665
Reenqueueing errored packet 331052 at time 9673
Additional hops: 15428
Adding flit 292921 as NACK at time 9675
Reenqueueing errored packet 376525 at time 9676
Reenqueueing errored packet 344407 at time 9677
Additional hops: 15436
Adding flit 347718 as NACK at time 9678
Additional hops: 15444
Adding flit 299830 as NACK at time 9681
Additional hops: 15453
Adding flit 348076 as NACK at time 9690
Additional hops: 15458
Adding flit 322084 as NACK at time 9692
Additional hops: 15466
Adding flit 362414 as NACK at time 9694
Reenqueueing errored packet 347718 at time 9695
Reenqueueing errored packet 292921 at time 9698
Additional hops: 15475
Adding flit 346458 as NACK at time 9699
Additional hops: 15481
Adding flit 369009 as NACK at time 9705
Reenqueueing errored packet 348076 at time 9709
Reenqueueing errored packet 362414 at time 9711
Additional hops: 15490
Adding flit 300051 as NACK at time 9711
Additional hops: 15495
Adding flit 215529 as NACK at time 9713
Reenqueueing errored packet 369009 at time 9718
Reenqueueing errored packet 346458 at time 9718
Reenqueueing errored packet 300051 at time 9730
Additional hops: 15498
Adding flit 350372 as NACK at time 9731
Additional hops: 15507
Adding flit 333343 as NACK at time 9731
Additional hops: 15514
Adding flit 350859 as NACK at time 9733
Reenqueueing errored packet 350372 at time 9738
Additional hops: 15523
Adding flit 340474 as NACK at time 9740
Reenqueueing errored packet 350859 at time 9748
Additional hops: 15532
Adding flit 244313 as NACK at time 9748
Reenqueueing errored packet 333343 at time 9750
Additional hops: 15539
Adding flit 378828 as NACK at time 9750
Additional hops: 15546
Adding flit 349447 as NACK at time 9754
Reenqueueing errored packet 340474 at time 9759
Additional hops: 15553
Adding flit 352668 as NACK at time 9762
Additional hops: 15557
Adding flit 365949 as NACK at time 9762
Reenqueueing errored packet 378828 at time 9765
Additional hops: 15562
Adding flit 348625 as NACK at time 9766
Additional hops: 15570
Adding flit 341933 as NACK at time 9768
Reenqueueing errored packet 349447 at time 9769
Reenqueueing errored packet 365949 at time 9771
Reenqueueing errored packet 348625 at time 9777
Reenqueueing errored packet 352668 at time 9777
Additional hops: 15578
Adding flit 303421 as NACK at time 9780
Additional hops: 15584
Adding flit 357790 as NACK at time 9784
Reenqueueing errored packet 341933 at time 9785
Reenqueueing errored packet 357790 at time 9797
Reenqueueing errored packet 303421 at time 9797
Additional hops: 15586
Adding flit 333093 as NACK at time 9797
Additional hops: 15591
Adding flit 364818 as NACK at time 9806
Additional hops: 15598
Adding flit 275767 as NACK at time 9806
Additional hops: 15604
Adding flit 369882 as NACK at time 9811
Reenqueueing errored packet 364818 at time 9817
Reenqueueing errored packet 275767 at time 9821
Additional hops: 15607
Adding flit 359096 as NACK at time 9821
Additional hops: 15613
Adding flit 350267 as NACK at time 9823
Reenqueueing errored packet 369882 at time 9824
Additional hops: 15616
Adding flit 319297 as NACK at time 9825
Reenqueueing errored packet 319297 at time 9832
Reenqueueing errored packet 350267 at time 9836
Additional hops: 15630
Adding flit 189860 as NACK at time 9836
Additional hops: 15640
Adding flit 362786 as NACK at time 9837
Additional hops: 15649
Adding flit 230903 as NACK at time 9838
Additional hops: 15661
Adding flit 199512 as NACK at time 9851
Additional hops: 15672
Adding flit 296669 as NACK at time 9854
Additional hops: 15676
Adding flit 305329 as NACK at time 9855
Reenqueueing errored packet 362786 at time 9858
Reenqueueing errored packet 305329 at time 9864
Additional hops: 15684
Adding flit 296212 as NACK at time 9864
Additional hops: 15693
Adding flit 338278 as NACK at time 9868
Additional hops: 15697
Adding flit 383169 as NACK at time 9871
Reenqueueing errored packet 383169 at time 9880
Additional hops: 15708
Adding flit 192497 as NACK at time 9880
Reenqueueing errored packet 338278 at time 9887
Additional hops: 15718
Adding flit 233183 as NACK at time 9889
Additional hops: 15725
Adding flit 365643 as NACK at time 9892
Additional hops: 15728
Adding flit 371613 as NACK at time 9893
Additional hops: 15734
Adding flit 345878 as NACK at time 9897
Reenqueueing errored packet 371613 at time 9900
Reenqueueing errored packet 365643 at time 9907
Additional hops: 15743
Adding flit 346946 as NACK at time 9909
Reenqueueing errored packet 345878 at time 9910
Additional hops: 15751
Adding flit 306212 as NACK at time 9918
Additional hops: 15758
Adding flit 247056 as NACK at time 9923
Additional hops: 15764
Adding flit 322119 as NACK at time 9926
Reenqueueing errored packet 346946 at time 9928
Additional hops: 15775
Adding flit 218480 as NACK at time 9931
Additional hops: 15786
Adding flit 184248 as NACK at time 9932
Additional hops: 15797
Adding flit 233180 as NACK at time 9936
Reenqueueing errored packet 322119 at time 9939
Additional hops: 15803
Adding flit 371368 as NACK at time 9940
Additional hops: 15811
Adding flit 360981 as NACK at time 9949
Reenqueueing errored packet 371368 at time 9953
Additional hops: 15819
Adding flit 291505 as NACK at time 9953
Additional hops: 15824
Adding flit 329881 as NACK at time 9954
Reenqueueing errored packet 233180 at time 9959
Additional hops: 15830
Adding flit 217102 as NACK at time 9959
Additional hops: 15839
Adding flit 306356 as NACK at time 9959
Additional hops: 15844
Adding flit 236895 as NACK at time 9959
Additional hops: 15848
Adding flit 357412 as NACK at time 9961
Additional hops: 15856
Adding flit 307704 as NACK at time 9963
Reenqueueing errored packet 360981 at time 9966
Additional hops: 15863
Adding flit 354243 as NACK at time 9969
Reenqueueing errored packet 357412 at time 9970
Reenqueueing errored packet 291505 at time 9970
Additional hops: 15875
Adding flit 239176 as NACK at time 9971
Additional hops: 15880
Adding flit 360986 as NACK at time 9978
Reenqueueing errored packet 307704 at time 9980
Additional hops: 15886
Adding flit 305448 as NACK at time 9981
Reenqueueing errored packet 354243 at time 9984
Additional hops: 15895
Adding flit 356696 as NACK at time 9986
Additional hops: 15900
Adding flit 373797 as NACK at time 9987
Reenqueueing errored packet 360986 at time 9989
Additional hops: 15907
Adding flit 346760 as NACK at time 9990
Additional hops: 15914
Adding flit 247067 as NACK at time 9991
Reenqueueing errored packet 305448 at time 9994
Additional hops: 15924
Adding flit 291637 as NACK at time 9995
Additional hops: 15928
Adding flit 362803 as NACK at time 9996
Reenqueueing errored packet 373797 at time 9998
Class 0:
Packet latency average = 1422.93
	minimum = 5
	maximum = 8560
Network latency average = 1295.21
	minimum = 5
	maximum = 6306
Slowest packet = 10885
Flit latency average = 1295.21
	minimum = 5
	maximum = 6306
Slowest flit = 181803
Fragmentation average = 0
	minimum = 0
	maximum = 0
Injected packet rate average = 0.614184
	minimum = 0.4436 (at node 49)
	maximum = 0.8112 (at node 44)
Accepted packet rate average = 0.504795
	minimum = 0.4864 (at node 21)
	maximum = 0.5216 (at node 28)
Injected flit rate average = 0.614184
	minimum = 0.4436 (at node 49)
	maximum = 0.8112 (at node 44)
Accepted flit rate average= 0.504795
	minimum = 0.4864 (at node 21)
	maximum = 0.5216 (at node 28)
Injected packet length average = 1
Accepted packet length average = 1
Total in-flight flits = 70530 (0 measured)
latency change    = 1
throughput change = 1
Average latency for class 0 exceeded 500 cycles. Aborting simulation.
Too many sample periods needed to converge
Simulation unstable, ending ...
Total run time 96.8607
