BEGIN Configuration File: examples/ecc_mesh88_config_1_0.350_packet_2
// $Id$

// Copyright (c) 2007-2015, Trustees of The Leland Stanford Junior University
// All rights reserved.
//
// Redistribution and use in source and binary forms, with or without
// modification, are permitted provided that the following conditions are met:
//
// Redistributions of source code must retain the above copyright notice, this
// list of conditions and the following disclaimer.
// Redistributions in binary form must reproduce the above copyright notice,
// this list of conditions and the following disclaimer in the documentation
// and/or other materials provided with the distribution.
//
// THIS SOFTWARE IS PROVIDED BY THE COPYRIGHT HOLDERS AND CONTRIBUTORS "AS IS"
// AND ANY EXPRESS OR IMPLIED WARRANTIES, INCLUDING, BUT NOT LIMITED TO, THE
// IMPLIED WARRANTIES OF MERCHANTABILITY AND FITNESS FOR A PARTICULAR PURPOSE
// ARE DISCLAIMED. IN NO EVENT SHALL THE COPYRIGHT OWNER OR CONTRIBUTORS BE
// LIABLE FOR ANY DIRECT, INDIRECT, INCIDENTAL, SPECIAL, EXEMPLARY, OR
// CONSEQUENTIAL DAMAGES (INCLUDING, BUT NOT LIMITED TO, PROCUREMENT OF
// SUBSTITUTE GOODS OR SERVICES; LOSS OF USE, DATA, OR PROFITS; OR BUSINESS
// INTERRUPTION) HOWEVER CAUSED AND ON ANY THEORY OF LIABILITY, WHETHER IN
// CONTRACT, STRICT LIABILITY, OR TORT (INCLUDING NEGLIGENCE OR OTHERWISE)
// ARISING IN ANY WAY OUT OF THE USE OF THIS SOFTWARE, EVEN IF ADVISED OF THE
// POSSIBILITY OF SUCH DAMAGE.

// Dragonfly
//




vc_buf_size = 256;


wait_for_tail_credit = 0;

//
// Router architecture
//
vc_allocator = separable_input_first; 
sw_allocator = separable_input_first;
alloc_iters  = 1;

credit_delay   = 2;
routing_delay  = 0;
vc_alloc_delay = 1;
sw_alloc_delay = 1;
st_final_delay = 1;

input_speedup     = 1;
output_speedup    = 1;
internal_speedup  = 2.0;


warmup_periods = 3;
sim_count          = 1;

sample_period  = 10000;  


routing_function = dor;
num_vcs     = 2;

priority = none;
traffic       = uniform; 

injection_rate = 0.35;
packet_size = 1;
injection_rate_uses_flits=1;

topology = mesh;

k  = 8;
n  = 2;

fer = 2;
ecc = link;
correctable = 1;

watch_out=-;
watch_file = watch.txt;

ecc = packet;

stats_out = examples/ecc_mesh88_config_1_0.350_packet_2.m;

END Configuration File: examples/ecc_mesh88_config_1_0.350_packet_2
Additional hops: 4
Adding flit 361 as NACK at time 29
Reenqueueing errored packet 361 at time 38
Additional hops: 11
Adding flit 339 as NACK at time 39
Additional hops: 14
Adding flit 653 as NACK at time 40
Reenqueueing errored packet 653 at time 47
Additional hops: 24
Adding flit 335 as NACK at time 48
Reenqueueing errored packet 339 at time 54
Reenqueueing errored packet 335 at time 69
Additional hops: 36
Adding flit 577 as NACK at time 69
Additional hops: 43
Adding flit 1355 as NACK at time 88
Additional hops: 52
Adding flit 1284 as NACK at time 89
Reenqueueing errored packet 577 at time 94
Additional hops: 62
Adding flit 1387 as NACK at time 97
Reenqueueing errored packet 1355 at time 103
Additional hops: 76
Adding flit 1288 as NACK at time 105
Reenqueueing errored packet 1284 at time 108
Additional hops: 81
Adding flit 2020 as NACK at time 108
Reenqueueing errored packet 1387 at time 118
Reenqueueing errored packet 2020 at time 119
Additional hops: 89
Adding flit 2172 as NACK at time 124
Reenqueueing errored packet 1288 at time 134
Reenqueueing errored packet 2172 at time 141
Additional hops: 99
Adding flit 2838 as NACK at time 160
Additional hops: 111
Adding flit 2981 as NACK at time 173
Additional hops: 116
Adding flit 3620 as NACK at time 179
Reenqueueing errored packet 2838 at time 181
Additional hops: 125
Adding flit 3302 as NACK at time 181
Reenqueueing errored packet 3620 at time 190
Reenqueueing errored packet 2981 at time 198
Additional hops: 127
Adding flit 4279 as NACK at time 198
Reenqueueing errored packet 3302 at time 200
Reenqueueing errored packet 4279 at time 203
Additional hops: 136
Adding flit 3926 as NACK at time 204
Additional hops: 143
Adding flit 4395 as NACK at time 221
Reenqueueing errored packet 3926 at time 223
Reenqueueing errored packet 4395 at time 236
Additional hops: 148
Adding flit 5635 as NACK at time 269
Uncorrectable 3
Additional hops: 160
Adding flit 5141 as NACK at time 270
Reenqueueing errored packet 5635 at time 280
Reenqueueing errored packet 5141 at time 295
Additional hops: 165
Adding flit 6522 as NACK at time 308
Reenqueueing errored packet 6522 at time 319
Additional hops: 175
Adding flit 6408 as NACK at time 321
Additional hops: 182
Adding flit 6896 as NACK at time 334
Additional hops: 188
Adding flit 7002 as NACK at time 335
Additional hops: 196
Adding flit 7018 as NACK at time 341
Reenqueueing errored packet 6408 at time 342
Reenqueueing errored packet 7002 at time 348
Additional hops: 202
Adding flit 7293 as NACK at time 348
Reenqueueing errored packet 6896 at time 349
Additional hops: 213
Adding flit 7023 as NACK at time 352
Reenqueueing errored packet 7018 at time 358
Reenqueueing errored packet 7293 at time 361
Additional hops: 220
Adding flit 7594 as NACK at time 364
Additional hops: 229
Adding flit 7569 as NACK at time 366
Additional hops: 238
Adding flit 7368 as NACK at time 367
Additional hops: 246
Adding flit 7662 as NACK at time 369
Reenqueueing errored packet 7023 at time 375
Reenqueueing errored packet 7594 at time 379
Reenqueueing errored packet 7569 at time 385
Reenqueueing errored packet 7662 at time 386
Reenqueueing errored packet 7368 at time 386
Additional hops: 254
Adding flit 8233 as NACK at time 392
Additional hops: 264
Adding flit 7927 as NACK at time 392
Reenqueueing errored packet 8233 at time 409
Additional hops: 272
Adding flit 8679 as NACK at time 412
Reenqueueing errored packet 7927 at time 413
Additional hops: 280
Adding flit 8597 as NACK at time 413
Reenqueueing errored packet 8679 at time 429
Additional hops: 289
Adding flit 8929 as NACK at time 429
Reenqueueing errored packet 8597 at time 430
Reenqueueing errored packet 8929 at time 448
Additional hops: 299
Adding flit 9570 as NACK at time 459
Additional hops: 304
Adding flit 10103 as NACK at time 467
Additional hops: 310
Adding flit 10132 as NACK at time 474
Reenqueueing errored packet 10103 at time 478
Reenqueueing errored packet 9570 at time 480
Additional hops: 321
Adding flit 9839 as NACK at time 481
Reenqueueing errored packet 10132 at time 487
Additional hops: 329
Adding flit 10167 as NACK at time 495
Reenqueueing errored packet 9839 at time 504
Reenqueueing errored packet 10167 at time 512
Additional hops: 338
Adding flit 11228 as NACK at time 538
Additional hops: 347
Adding flit 11396 as NACK at time 540
Additional hops: 351
Adding flit 11806 as NACK at time 543
Additional hops: 359
Adding flit 11599 as NACK at time 544
Reenqueueing errored packet 11806 at time 552
Additional hops: 367
Adding flit 11840 as NACK at time 555
Reenqueueing errored packet 11228 at time 557
Reenqueueing errored packet 11396 at time 559
Additional hops: 374
Adding flit 11905 as NACK at time 560
Reenqueueing errored packet 11599 at time 561
Reenqueueing errored packet 11840 at time 572
Reenqueueing errored packet 11905 at time 575
Additional hops: 380
Adding flit 13566 as NACK at time 628
Additional hops: 385
Adding flit 13840 as NACK at time 635
Additional hops: 392
Adding flit 13705 as NACK at time 636
Reenqueueing errored packet 13566 at time 641
Reenqueueing errored packet 13840 at time 646
Reenqueueing errored packet 13705 at time 651
Additional hops: 403
Adding flit 14038 as NACK at time 665
Additional hops: 408
Adding flit 14784 as NACK at time 678
Additional hops: 412
Adding flit 14948 as NACK at time 683
Reenqueueing errored packet 14038 at time 688
Reenqueueing errored packet 14784 at time 689
Reenqueueing errored packet 14948 at time 692
Additional hops: 417
Adding flit 15242 as NACK at time 697
Reenqueueing errored packet 15242 at time 708
Additional hops: 427
Adding flit 15088 as NACK at time 712
Additional hops: 434
Adding flit 15432 as NACK at time 714
Reenqueueing errored packet 15432 at time 729
Additional hops: 443
Adding flit 15626 as NACK at time 730
Reenqueueing errored packet 15088 at time 733
Additional hops: 452
Adding flit 15945 as NACK at time 741
Reenqueueing errored packet 15626 at time 749
Reenqueueing errored packet 15945 at time 760
Additional hops: 458
Adding flit 16717 as NACK at time 771
Reenqueueing errored packet 16717 at time 784
Additional hops: 470
Adding flit 16799 as NACK at time 792
Additional hops: 479
Adding flit 17000 as NACK at time 795
Additional hops: 481
Adding flit 17704 as NACK at time 799
Reenqueueing errored packet 17704 at time 804
Reenqueueing errored packet 17000 at time 814
Reenqueueing errored packet 16799 at time 817
Additional hops: 489
Adding flit 18166 as NACK at time 837
Reenqueueing errored packet 18166 at time 854
Additional hops: 491
Adding flit 19513 as NACK at time 878
Reenqueueing errored packet 19513 at time 883
Additional hops: 499
Adding flit 19297 as NACK at time 886
Additional hops: 504
Adding flit 19576 as NACK at time 892
Additional hops: 509
Adding flit 19642 as NACK at time 894
Reenqueueing errored packet 19576 at time 903
Reenqueueing errored packet 19297 at time 903
Reenqueueing errored packet 19642 at time 905
Additional hops: 518
Adding flit 19809 as NACK at time 912
Reenqueueing errored packet 19809 at time 931
Additional hops: 519
Adding flit 20944 as NACK at time 938
Reenqueueing errored packet 20944 at time 941
Additional hops: 527
Adding flit 20607 as NACK at time 945
Additional hops: 536
Adding flit 20499 as NACK at time 947
Reenqueueing errored packet 20607 at time 962
Reenqueueing errored packet 20499 at time 966
Additional hops: 543
Adding flit 21421 as NACK at time 979
Additional hops: 552
Adding flit 21522 as NACK at time 989
Reenqueueing errored packet 21421 at time 994
Reenqueueing errored packet 21522 at time 1008
Additional hops: 562
Adding flit 22053 as NACK at time 1016
Additional hops: 569
Adding flit 22351 as NACK at time 1020
Additional hops: 583
Adding flit 22050 as NACK at time 1027
Reenqueueing errored packet 22351 at time 1035
Reenqueueing errored packet 22053 at time 1037
Reenqueueing errored packet 22050 at time 1056
Additional hops: 588
Adding flit 23468 as NACK at time 1065
Additional hops: 593
Adding flit 23504 as NACK at time 1068
Additional hops: 604
Adding flit 23152 as NACK at time 1071
Reenqueueing errored packet 23468 at time 1076
Reenqueueing errored packet 23504 at time 1079
Reenqueueing errored packet 23152 at time 1094
Additional hops: 612
Adding flit 23973 as NACK at time 1097
Reenqueueing errored packet 23973 at time 1114
Additional hops: 621
Adding flit 24363 as NACK at time 1119
Reenqueueing errored packet 24363 at time 1138
Uncorrectable 3
Additional hops: 629
Adding flit 25423 as NACK at time 1164
Additional hops: 634
Adding flit 25860 as NACK at time 1170
Reenqueueing errored packet 25860 at time 1181
Reenqueueing errored packet 25423 at time 1181
Additional hops: 639
Adding flit 26497 as NACK at time 1202
Additional hops: 645
Adding flit 26573 as NACK at time 1209
Reenqueueing errored packet 26497 at time 1213
Additional hops: 651
Adding flit 26841 as NACK at time 1219
Reenqueueing errored packet 26573 at time 1222
Reenqueueing errored packet 26841 at time 1232
Additional hops: 655
Adding flit 28298 as NACK at time 1277
Reenqueueing errored packet 28298 at time 1286
Additional hops: 663
Adding flit 28203 as NACK at time 1287
Reenqueueing errored packet 28203 at time 1304
Additional hops: 668
Adding flit 29158 as NACK at time 1319
Reenqueueing errored packet 29158 at time 1330
Additional hops: 672
Adding flit 29643 as NACK at time 1339
Additional hops: 682
Adding flit 29317 as NACK at time 1341
Additional hops: 691
Adding flit 29358 as NACK at time 1342
Reenqueueing errored packet 29643 at time 1348
Additional hops: 701
Adding flit 29755 as NACK at time 1359
Reenqueueing errored packet 29358 at time 1361
Reenqueueing errored packet 29317 at time 1362
Reenqueueing errored packet 29755 at time 1380
Additional hops: 711
Adding flit 30515 as NACK at time 1396
Additional hops: 719
Adding flit 30953 as NACK at time 1415
Additional hops: 727
Adding flit 31126 as NACK at time 1415
Reenqueueing errored packet 30515 at time 1417
Reenqueueing errored packet 31126 at time 1432
Reenqueueing errored packet 30953 at time 1432
Additional hops: 734
Adding flit 31892 as NACK at time 1446
Reenqueueing errored packet 31892 at time 1461
Additional hops: 741
Adding flit 32672 as NACK at time 1480
Additional hops: 750
Adding flit 32347 as NACK at time 1484
Reenqueueing errored packet 32672 at time 1495
Additional hops: 761
Adding flit 32775 as NACK at time 1499
Additional hops: 766
Adding flit 33035 as NACK at time 1501
Reenqueueing errored packet 32347 at time 1503
Reenqueueing errored packet 33035 at time 1512
Reenqueueing errored packet 32775 at time 1522
Additional hops: 773
Adding flit 33650 as NACK at time 1525
Additional hops: 778
Adding flit 34042 as NACK at time 1535
Reenqueueing errored packet 33650 at time 1540
Additional hops: 784
Adding flit 34224 as NACK at time 1545
Reenqueueing errored packet 34042 at time 1546
Additional hops: 793
Adding flit 34136 as NACK at time 1551
Additional hops: 798
Adding flit 34417 as NACK at time 1552
Reenqueueing errored packet 34224 at time 1558
Reenqueueing errored packet 34417 at time 1563
Reenqueueing errored packet 34136 at time 1570
Additional hops: 801
Adding flit 34998 as NACK at time 1570
Reenqueueing errored packet 34998 at time 1577
Additional hops: 810
Adding flit 35286 as NACK at time 1603
Additional hops: 820
Adding flit 35487 as NACK at time 1614
Additional hops: 833
Adding flit 35426 as NACK at time 1620
Reenqueueing errored packet 35286 at time 1622
Reenqueueing errored packet 35487 at time 1635
Reenqueueing errored packet 35426 at time 1647
Additional hops: 843
Adding flit 37109 as NACK at time 1689
Reenqueueing errored packet 37109 at time 1710
Additional hops: 851
Adding flit 37921 as NACK at time 1722
Reenqueueing errored packet 37921 at time 1739
Additional hops: 857
Adding flit 38517 as NACK at time 1741
Reenqueueing errored packet 38517 at time 1754
Additional hops: 864
Adding flit 38872 as NACK at time 1758
Reenqueueing errored packet 38872 at time 1773
Additional hops: 868
Adding flit 39520 as NACK at time 1776
Reenqueueing errored packet 39520 at time 1785
Additional hops: 881
Adding flit 39714 as NACK at time 1818
Additional hops: 892
Adding flit 39848 as NACK at time 1819
Additional hops: 898
Adding flit 40306 as NACK at time 1820
Reenqueueing errored packet 40306 at time 1833
Additional hops: 908
Adding flit 40430 as NACK at time 1838
Reenqueueing errored packet 39848 at time 1842
Additional hops: 923
Adding flit 40216 as NACK at time 1842
Reenqueueing errored packet 39714 at time 1845
Additional hops: 933
Adding flit 40830 as NACK at time 1858
Reenqueueing errored packet 40430 at time 1859
Reenqueueing errored packet 40216 at time 1873
Reenqueueing errored packet 40830 at time 1879
Additional hops: 939
Adding flit 42495 as NACK at time 1912
Reenqueueing errored packet 42495 at time 1925
Uncorrectable 3
Additional hops: 948
Adding flit 42727 as NACK at time 1931
Reenqueueing errored packet 42727 at time 1950
Additional hops: 961
Adding flit 43792 as NACK at time 1995
Additional hops: 971
Adding flit 44477 as NACK at time 2014
Additional hops: 977
Adding flit 44831 as NACK at time 2015
Reenqueueing errored packet 43792 at time 2022
Reenqueueing errored packet 44831 at time 2028
Reenqueueing errored packet 44477 at time 2035
Additional hops: 986
Adding flit 45332 as NACK at time 2045
Additional hops: 994
Adding flit 45743 as NACK at time 2060
Additional hops: 1001
Adding flit 45775 as NACK at time 2061
Reenqueueing errored packet 45332 at time 2064
Additional hops: 1009
Adding flit 45806 as NACK at time 2064
Additional hops: 1018
Adding flit 45725 as NACK at time 2066
Additional hops: 1027
Adding flit 45407 as NACK at time 2066
Additional hops: 1033
Adding flit 46184 as NACK at time 2074
Reenqueueing errored packet 45775 at time 2076
Reenqueueing errored packet 45743 at time 2077
Reenqueueing errored packet 45806 at time 2081
Additional hops: 1044
Adding flit 45928 as NACK at time 2083
Reenqueueing errored packet 45407 at time 2085
Reenqueueing errored packet 45725 at time 2085
Reenqueueing errored packet 46184 at time 2087
Reenqueueing errored packet 45928 at time 2106
Additional hops: 1053
Adding flit 46962 as NACK at time 2118
Reenqueueing errored packet 46962 at time 2137
Additional hops: 1059
Adding flit 47893 as NACK at time 2154
Reenqueueing errored packet 47893 at time 2167
Additional hops: 1065
Adding flit 48282 as NACK at time 2172
Additional hops: 1069
Adding flit 48707 as NACK at time 2181
Uncorrectable 3
Additional hops: 1078
Adding flit 48294 as NACK at time 2182
Additional hops: 1082
Adding flit 48815 as NACK at time 2184
Reenqueueing errored packet 48282 at time 2185
Reenqueueing errored packet 48707 at time 2190
Reenqueueing errored packet 48815 at time 2193
Additional hops: 1092
Adding flit 48631 as NACK at time 2197
Reenqueueing errored packet 48294 at time 2201
Additional hops: 1097
Adding flit 49399 as NACK at time 2213
Additional hops: 1100
Adding flit 49587 as NACK at time 2216
Reenqueueing errored packet 48631 at time 2218
Reenqueueing errored packet 49587 at time 2223
Reenqueueing errored packet 49399 at time 2224
Additional hops: 1103
Adding flit 50223 as NACK at time 2245
Additional hops: 1112
Adding flit 49875 as NACK at time 2251
Reenqueueing errored packet 50223 at time 2252
Additional hops: 1118
Adding flit 50168 as NACK at time 2254
Additional hops: 1131
Adding flit 49785 as NACK at time 2257
Reenqueueing errored packet 50168 at time 2267
Reenqueueing errored packet 49875 at time 2270
Additional hops: 1135
Adding flit 50825 as NACK at time 2275
Reenqueueing errored packet 50825 at time 2284
Reenqueueing errored packet 49785 at time 2284
Additional hops: 1140
Adding flit 51519 as NACK at time 2310
Additional hops: 1150
Adding flit 51190 as NACK at time 2312
Reenqueueing errored packet 51519 at time 2321
Reenqueueing errored packet 51190 at time 2333
Additional hops: 1157
Adding flit 51879 as NACK at time 2338
Reenqueueing errored packet 51879 at time 2353
Additional hops: 1160
Adding flit 52802 as NACK at time 2359
Reenqueueing errored packet 52802 at time 2366
Additional hops: 1164
Adding flit 53017 as NACK at time 2372
Reenqueueing errored packet 53017 at time 2381
Additional hops: 1170
Adding flit 53202 as NACK at time 2385
Additional hops: 1179
Adding flit 53089 as NACK at time 2392
Reenqueueing errored packet 53202 at time 2398
Additional hops: 1189
Adding flit 53391 as NACK at time 2404
Uncorrectable 3
Additional hops: 1193
Adding flit 53737 as NACK at time 2404
Reenqueueing errored packet 53089 at time 2411
Reenqueueing errored packet 53737 at time 2413
Reenqueueing errored packet 53391 at time 2425
Additional hops: 1201
Adding flit 53974 as NACK at time 2426
Additional hops: 1208
Adding flit 54136 as NACK at time 2428
Additional hops: 1217
Adding flit 53983 as NACK at time 2430
Additional hops: 1229
Adding flit 54019 as NACK at time 2441
Reenqueueing errored packet 54136 at time 2443
Reenqueueing errored packet 53974 at time 2443
Reenqueueing errored packet 53983 at time 2449
Additional hops: 1233
Adding flit 55128 as NACK at time 2465
Reenqueueing errored packet 54019 at time 2466
Additional hops: 1242
Adding flit 54685 as NACK at time 2467
Reenqueueing errored packet 55128 at time 2474
Reenqueueing errored packet 54685 at time 2486
Additional hops: 1248
Adding flit 56044 as NACK at time 2515
Reenqueueing errored packet 56044 at time 2528
Additional hops: 1261
Adding flit 56764 as NACK at time 2568
Additional hops: 1272
Adding flit 56874 as NACK at time 2571
Additional hops: 1282
Adding flit 57278 as NACK at time 2583
Additional hops: 1285
Adding flit 58064 as NACK at time 2592
Reenqueueing errored packet 56874 at time 2594
Reenqueueing errored packet 56764 at time 2595
Reenqueueing errored packet 58064 at time 2599
Reenqueueing errored packet 57278 at time 2604
Additional hops: 1296
Adding flit 58396 as NACK at time 2635
Reenqueueing errored packet 58396 at time 2658
Additional hops: 1303
Adding flit 60004 as NACK at time 2692
Reenqueueing errored packet 60004 at time 2707
Additional hops: 1317
Adding flit 59892 as NACK at time 2712
Additional hops: 1325
Adding flit 60457 as NACK at time 2716
Additional hops: 1331
Adding flit 60585 as NACK at time 2718
Additional hops: 1337
Adding flit 60919 as NACK at time 2730
Reenqueueing errored packet 60585 at time 2731
Reenqueueing errored packet 60457 at time 2733
Reenqueueing errored packet 59892 at time 2741
Reenqueueing errored packet 60919 at time 2743
Additional hops: 1349
Adding flit 60987 as NACK at time 2753
Additional hops: 1353
Adding flit 61636 as NACK at time 2754
Additional hops: 1362
Adding flit 61315 as NACK at time 2759
Reenqueueing errored packet 61636 at time 2763
Additional hops: 1374
Adding flit 61537 as NACK at time 2777
Reenqueueing errored packet 61315 at time 2778
Reenqueueing errored packet 60987 at time 2778
Additional hops: 1383
Adding flit 62114 as NACK at time 2794
Reenqueueing errored packet 61537 at time 2802
Additional hops: 1392
Adding flit 62537 as NACK at time 2811
Additional hops: 1399
Adding flit 62668 as NACK at time 2812
Reenqueueing errored packet 62114 at time 2813
Additional hops: 1407
Adding flit 62611 as NACK at time 2817
Additional hops: 1416
Adding flit 62622 as NACK at time 2817
Reenqueueing errored packet 62668 at time 2827
Reenqueueing errored packet 62537 at time 2830
Reenqueueing errored packet 62611 at time 2834
Reenqueueing errored packet 62622 at time 2836
Additional hops: 1424
Adding flit 63330 as NACK at time 2845
Additional hops: 1433
Adding flit 63454 as NACK at time 2850
Additional hops: 1443
Adding flit 63545 as NACK at time 2857
Reenqueueing errored packet 63330 at time 2862
Additional hops: 1449
Adding flit 63927 as NACK at time 2863
Reenqueueing errored packet 63454 at time 2869
Reenqueueing errored packet 63927 at time 2876
Additional hops: 1456
Adding flit 64201 as NACK at time 2877
Reenqueueing errored packet 63545 at time 2878
Additional hops: 1462
Adding flit 64361 as NACK at time 2880
Reenqueueing errored packet 64201 at time 2892
Reenqueueing errored packet 64361 at time 2893
Additional hops: 1473
Adding flit 64235 as NACK at time 2898
Reenqueueing errored packet 64235 at time 2921
Additional hops: 1482
Adding flit 66205 as NACK at time 2973
Additional hops: 1491
Adding flit 66280 as NACK at time 2976
Additional hops: 1501
Adding flit 66533 as NACK at time 2990
Reenqueueing errored packet 66205 at time 2992
Reenqueueing errored packet 66280 at time 2995
Reenqueueing errored packet 66533 at time 3011
Additional hops: 1510
Adding flit 67233 as NACK at time 3022
Additional hops: 1514
Adding flit 68083 as NACK at time 3040
Reenqueueing errored packet 67233 at time 3041
Additional hops: 1523
Adding flit 67884 as NACK at time 3048
Reenqueueing errored packet 68083 at time 3049
Additional hops: 1530
Adding flit 68032 as NACK at time 3051
Additional hops: 1539
Adding flit 68095 as NACK at time 3058
Reenqueueing errored packet 68032 at time 3066
Reenqueueing errored packet 67884 at time 3067
Reenqueueing errored packet 68095 at time 3077
Additional hops: 1547
Adding flit 69233 as NACK at time 3107
Additional hops: 1551
Adding flit 69557 as NACK at time 3107
Reenqueueing errored packet 69557 at time 3116
Reenqueueing errored packet 69233 at time 3124
Uncorrectable 3
Additional hops: 1563
Adding flit 69479 as NACK at time 3127
Additional hops: 1574
Adding flit 69967 as NACK at time 3148
Additional hops: 1579
Adding flit 70373 as NACK at time 3149
Reenqueueing errored packet 69479 at time 3152
Reenqueueing errored packet 70373 at time 3160
Reenqueueing errored packet 69967 at time 3171
Additional hops: 1584
Adding flit 71128 as NACK at time 3183
Additional hops: 1597
Adding flit 70574 as NACK at time 3186
Reenqueueing errored packet 71128 at time 3194
Additional hops: 1606
Adding flit 71158 as NACK at time 3198
Additional hops: 1611
Adding flit 71697 as NACK at time 3212
Reenqueueing errored packet 70574 at time 3213
Reenqueueing errored packet 71158 at time 3217
Reenqueueing errored packet 71697 at time 3223
Additional hops: 1615
Adding flit 72148 as NACK at time 3226
Additional hops: 1623
Adding flit 71895 as NACK at time 3227
Additional hops: 1628
Adding flit 72151 as NACK at time 3228
Additional hops: 1639
Adding flit 71792 as NACK at time 3230
Reenqueueing errored packet 72148 at time 3235
Additional hops: 1651
Adding flit 71812 as NACK at time 3238
Reenqueueing errored packet 72151 at time 3239
Reenqueueing errored packet 71895 at time 3244
Additional hops: 1655
Adding flit 72667 as NACK at time 3249
Reenqueueing errored packet 71792 at time 3253
Reenqueueing errored packet 72667 at time 3258
Additional hops: 1663
Adding flit 72495 as NACK at time 3259
Additional hops: 1670
Adding flit 72650 as NACK at time 3260
Additional hops: 1681
Adding flit 72458 as NACK at time 3262
Reenqueueing errored packet 71812 at time 3263
Additional hops: 1688
Adding flit 72991 as NACK at time 3274
Additional hops: 1697
Adding flit 72824 as NACK at time 3274
Reenqueueing errored packet 72650 at time 3275
Reenqueueing errored packet 72495 at time 3276
Reenqueueing errored packet 72458 at time 3285
Additional hops: 1700
Adding flit 73551 as NACK at time 3285
Reenqueueing errored packet 72991 at time 3289
Reenqueueing errored packet 73551 at time 3292
Additional hops: 1704
Adding flit 73632 as NACK at time 3292
Reenqueueing errored packet 72824 at time 3293
Reenqueueing errored packet 73632 at time 3301
Additional hops: 1712
Adding flit 74094 as NACK at time 3325
Additional hops: 1722
Adding flit 74176 as NACK at time 3341
Reenqueueing errored packet 74094 at time 3342
Additional hops: 1729
Adding flit 74694 as NACK at time 3353
Reenqueueing errored packet 74176 at time 3362
Reenqueueing errored packet 74694 at time 3368
Additional hops: 1737
Adding flit 74922 as NACK at time 3368
Additional hops: 1739
Adding flit 75850 as NACK at time 3384
Reenqueueing errored packet 74922 at time 3385
Reenqueueing errored packet 75850 at time 3389
Additional hops: 1749
Adding flit 75872 as NACK at time 3414
Additional hops: 1760
Adding flit 76301 as NACK at time 3431
Reenqueueing errored packet 75872 at time 3435
Additional hops: 1764
Adding flit 76931 as NACK at time 3438
Uncorrectable 3
Additional hops: 1770
Adding flit 76853 as NACK at time 3443
Reenqueueing errored packet 76931 at time 3447
Reenqueueing errored packet 76301 at time 3454
Reenqueueing errored packet 76853 at time 3456
Additional hops: 1773
Adding flit 77675 as NACK at time 3468
Reenqueueing errored packet 77675 at time 3475
Additional hops: 1778
Adding flit 77801 as NACK at time 3479
Reenqueueing errored packet 77801 at time 3490
Additional hops: 1780
Adding flit 78329 as NACK at time 3496
Reenqueueing errored packet 78329 at time 3501
Additional hops: 1787
Adding flit 78069 as NACK at time 3501
Additional hops: 1797
Adding flit 77844 as NACK at time 3501
Additional hops: 1804
Adding flit 78164 as NACK at time 3502
Reenqueueing errored packet 78069 at time 3516
Reenqueueing errored packet 78164 at time 3517
Additional hops: 1814
Adding flit 78242 as NACK at time 3517
Reenqueueing errored packet 77844 at time 3522
Additional hops: 1824
Adding flit 78438 as NACK at time 3525
Additional hops: 1831
Adding flit 78841 as NACK at time 3534
Reenqueueing errored packet 78242 at time 3538
Additional hops: 1841
Adding flit 78833 as NACK at time 3543
Reenqueueing errored packet 78438 at time 3546
Additional hops: 1849
Adding flit 78894 as NACK at time 3546
Reenqueueing errored packet 78841 at time 3549
Reenqueueing errored packet 78894 at time 3563
Reenqueueing errored packet 78833 at time 3564
Additional hops: 1861
Adding flit 79333 as NACK at time 3575
Additional hops: 1869
Adding flit 79842 as NACK at time 3589
Reenqueueing errored packet 79333 at time 3600
Reenqueueing errored packet 79842 at time 3606
Additional hops: 1877
Adding flit 80827 as NACK at time 3629
Additional hops: 1886
Adding flit 80854 as NACK at time 3634
Reenqueueing errored packet 80827 at time 3646
Reenqueueing errored packet 80854 at time 3653
Additional hops: 1888
Adding flit 82655 as NACK at time 3689
Reenqueueing errored packet 82655 at time 3694
Additional hops: 1892
Adding flit 83355 as NACK at time 3728
Reenqueueing errored packet 83355 at time 3737
Additional hops: 1900
Adding flit 83777 as NACK at time 3759
Additional hops: 1905
Adding flit 83933 as NACK at time 3760
Additional hops: 1914
Adding flit 83930 as NACK at time 3770
Reenqueueing errored packet 83933 at time 3771
Reenqueueing errored packet 83777 at time 3776
Reenqueueing errored packet 83930 at time 3789
Additional hops: 1927
Adding flit 87771 as NACK at time 3955
Additional hops: 1937
Adding flit 88046 as NACK at time 3957
Additional hops: 1946
Adding flit 88285 as NACK at time 3964
Additional hops: 1956
Adding flit 88187 as NACK at time 3966
Additional hops: 1965
Adding flit 88326 as NACK at time 3967
Reenqueueing errored packet 88046 at time 3978
Reenqueueing errored packet 87771 at time 3982
Additional hops: 1969
Adding flit 88975 as NACK at time 3982
Reenqueueing errored packet 88285 at time 3983
Additional hops: 1973
Adding flit 89000 as NACK at time 3983
Reenqueueing errored packet 88326 at time 3986
Reenqueueing errored packet 88187 at time 3987
Reenqueueing errored packet 88975 at time 3991
Reenqueueing errored packet 89000 at time 3992
Additional hops: 1982
Adding flit 89355 as NACK at time 4022
Additional hops: 1990
Adding flit 89733 as NACK at time 4027
Reenqueueing errored packet 89355 at time 4041
Reenqueueing errored packet 89733 at time 4044
Additional hops: 2001
Adding flit 90539 as NACK at time 4074
Reenqueueing errored packet 90539 at time 4097
Additional hops: 2010
Adding flit 91179 as NACK at time 4097
Additional hops: 2019
Adding flit 91213 as NACK at time 4104
Additional hops: 2029
Adding flit 91342 as NACK at time 4105
Additional hops: 2038
Adding flit 91504 as NACK at time 4114
Reenqueueing errored packet 91179 at time 4116
Additional hops: 2042
Adding flit 92030 as NACK at time 4119
Reenqueueing errored packet 91213 at time 4123
Reenqueueing errored packet 91342 at time 4126
Additional hops: 2051
Adding flit 91810 as NACK at time 4127
Reenqueueing errored packet 92030 at time 4128
Reenqueueing errored packet 91504 at time 4133
Reenqueueing errored packet 91810 at time 4146
Additional hops: 2058
Adding flit 92450 as NACK at time 4148
Additional hops: 2067
Adding flit 92379 as NACK at time 4155
Reenqueueing errored packet 92450 at time 4163
Reenqueueing errored packet 92379 at time 4174
Additional hops: 2074
Adding flit 93605 as NACK at time 4200
Additional hops: 2079
Adding flit 93731 as NACK at time 4201
Reenqueueing errored packet 93731 at time 4212
Reenqueueing errored packet 93605 at time 4215
Additional hops: 2089
Adding flit 94532 as NACK at time 4255
Additional hops: 2097
Adding flit 95039 as NACK at time 4272
Additional hops: 2109
Adding flit 94710 as NACK at time 4272
Reenqueueing errored packet 94532 at time 4276
Reenqueueing errored packet 95039 at time 4289
Additional hops: 2120
Adding flit 95311 as NACK at time 4293
Reenqueueing errored packet 94710 at time 4297
Additional hops: 2129
Adding flit 95553 as NACK at time 4297
Additional hops: 2136
Adding flit 96005 as NACK at time 4311
Reenqueueing errored packet 95553 at time 4316
Reenqueueing errored packet 95311 at time 4316
Additional hops: 2156
Adding flit 94532 as NACK at time 4317
Reenqueueing errored packet 96005 at time 4326
Additional hops: 2165
Adding flit 96261 as NACK at time 4326
Reenqueueing errored packet 96261 at time 4345
Additional hops: 2173
Adding flit 96747 as NACK at time 4348
Reenqueueing errored packet 94532 at time 4358
Reenqueueing errored packet 96747 at time 4365
Additional hops: 2185
Adding flit 98342 as NACK at time 4427
Additional hops: 2195
Adding flit 98459 as NACK at time 4430
Reenqueueing errored packet 98459 at time 4451
Additional hops: 2202
Adding flit 99193 as NACK at time 4451
Reenqueueing errored packet 98342 at time 4452
Additional hops: 2204
Adding flit 99797 as NACK at time 4462
Additional hops: 2210
Adding flit 99468 as NACK at time 4463
Reenqueueing errored packet 99193 at time 4466
Reenqueueing errored packet 99797 at time 4467
Additional hops: 2216
Adding flit 99722 as NACK at time 4471
Additional hops: 2223
Adding flit 99509 as NACK at time 4471
Additional hops: 2227
Adding flit 99851 as NACK at time 4472
Reenqueueing errored packet 99468 at time 4476
Reenqueueing errored packet 99851 at time 4481
Reenqueueing errored packet 99722 at time 4484
Reenqueueing errored packet 99509 at time 4486
Additional hops: 2234
Adding flit 100189 as NACK at time 4495
Additional hops: 2239
Adding flit 100288 as NACK at time 4495
Additional hops: 2245
Adding flit 100488 as NACK at time 4505
Reenqueueing errored packet 100288 at time 4506
Additional hops: 2253
Adding flit 100262 as NACK at time 4508
Reenqueueing errored packet 100189 at time 4510
Reenqueueing errored packet 100488 at time 4518
Additional hops: 2260
Adding flit 100700 as NACK at time 4518
Reenqueueing errored packet 100262 at time 4525
Reenqueueing errored packet 100700 at time 4533
Additional hops: 2268
Adding flit 101151 as NACK at time 4541
Additional hops: 2275
Adding flit 101123 as NACK at time 4542
Reenqueueing errored packet 101123 at time 4557
Reenqueueing errored packet 101151 at time 4558
Additional hops: 2285
Adding flit 101509 as NACK at time 4565
Additional hops: 2290
Adding flit 101915 as NACK at time 4570
Reenqueueing errored packet 101915 at time 4581
Reenqueueing errored packet 101509 at time 4586
Additional hops: 2297
Adding flit 102981 as NACK at time 4623
Additional hops: 2300
Adding flit 103323 as NACK at time 4626
Additional hops: 2306
Adding flit 103147 as NACK at time 4628
Reenqueueing errored packet 103323 at time 4633
Reenqueueing errored packet 102981 at time 4638
Additional hops: 2312
Adding flit 103432 as NACK at time 4640
Reenqueueing errored packet 103147 at time 4641
Reenqueueing errored packet 103432 at time 4653
Additional hops: 2324
Adding flit 103130 as NACK at time 4660
Additional hops: 2334
Adding flit 104132 as NACK at time 4682
Reenqueueing errored packet 103130 at time 4685
Reenqueueing errored packet 104132 at time 4703
Additional hops: 2342
Adding flit 104958 as NACK at time 4711
Additional hops: 2352
Adding flit 105152 as NACK at time 4725
Reenqueueing errored packet 104958 at time 4728
Additional hops: 2359
Adding flit 105428 as NACK at time 4728
Additional hops: 2370
Adding flit 105310 as NACK at time 4735
Reenqueueing errored packet 105428 at time 4743
Reenqueueing errored packet 105152 at time 4746
Reenqueueing errored packet 105310 at time 4758
Additional hops: 2377
Adding flit 106071 as NACK at time 4759
Reenqueueing errored packet 106071 at time 4774
Additional hops: 2386
Adding flit 106353 as NACK at time 4774
Additional hops: 2390
Adding flit 106955 as NACK at time 4785
Reenqueueing errored packet 106353 at time 4793
Reenqueueing errored packet 106955 at time 4794
Additional hops: 2397
Adding flit 107089 as NACK at time 4804
Reenqueueing errored packet 107089 at time 4819
Additional hops: 2404
Adding flit 107508 as NACK at time 4820
Additional hops: 2416
Adding flit 107265 as NACK at time 4824
Additional hops: 2421
Adding flit 107871 as NACK at time 4830
Additional hops: 2429
Adding flit 107652 as NACK at time 4832
Reenqueueing errored packet 107508 at time 4835
Reenqueueing errored packet 107871 at time 4841
Additional hops: 2437
Adding flit 108009 as NACK at time 4845
Reenqueueing errored packet 107652 at time 4849
Reenqueueing errored packet 107265 at time 4849
Reenqueueing errored packet 108009 at time 4862
Additional hops: 2445
Adding flit 108348 as NACK at time 4863
Additional hops: 2453
Adding flit 108656 as NACK at time 4879
Reenqueueing errored packet 108348 at time 4880
Additional hops: 2458
Adding flit 108938 as NACK at time 4881
Additional hops: 2467
Adding flit 108896 as NACK at time 4889
Reenqueueing errored packet 108938 at time 4892
Reenqueueing errored packet 108656 at time 4896
Reenqueueing errored packet 108896 at time 4908
Additional hops: 2478
Adding flit 109383 as NACK at time 4919
Additional hops: 2490
Adding flit 109335 as NACK at time 4920
Additional hops: 2498
Adding flit 109731 as NACK at time 4923
Reenqueueing errored packet 109731 at time 4940
Reenqueueing errored packet 109383 at time 4942
Reenqueueing errored packet 109335 at time 4945
Additional hops: 2507
Adding flit 110505 as NACK at time 4963
Additional hops: 2514
Adding flit 110718 as NACK at time 4965
Additional hops: 2517
Adding flit 111278 as NACK at time 4978
Reenqueueing errored packet 110718 at time 4980
Reenqueueing errored packet 110505 at time 4982
Reenqueueing errored packet 111278 at time 4985
Additional hops: 2524
Adding flit 111297 as NACK at time 4992
Additional hops: 2529
Adding flit 111503 as NACK at time 4996
Additional hops: 2539
Adding flit 111406 as NACK at time 5005
Reenqueueing errored packet 111503 at time 5007
Reenqueueing errored packet 111297 at time 5007
Additional hops: 2549
Adding flit 111704 as NACK at time 5021
Reenqueueing errored packet 111406 at time 5026
Additional hops: 2560
Adding flit 111702 as NACK at time 5028
Additional hops: 2571
Adding flit 112138 as NACK at time 5040
Reenqueueing errored packet 111704 at time 5042
Additional hops: 2577
Adding flit 112444 as NACK at time 5044
Additional hops: 2588
Adding flit 112202 as NACK at time 5047
Reenqueueing errored packet 111702 at time 5051
Additional hops: 2593
Adding flit 112725 as NACK at time 5054
Reenqueueing errored packet 112444 at time 5057
Reenqueueing errored packet 112138 at time 5063
Reenqueueing errored packet 112725 at time 5065
Reenqueueing errored packet 112202 at time 5070
Additional hops: 2597
Adding flit 113916 as NACK at time 5100
Reenqueueing errored packet 113916 at time 5109
Additional hops: 2608
Adding flit 113985 as NACK at time 5124
Additional hops: 2616
Adding flit 114541 as NACK at time 5140
Reenqueueing errored packet 113985 at time 5147
Reenqueueing errored packet 114541 at time 5157
Additional hops: 2625
Adding flit 115111 as NACK at time 5172
Additional hops: 2637
Adding flit 115236 as NACK at time 5185
Reenqueueing errored packet 115111 at time 5191
Additional hops: 2644
Adding flit 115812 as NACK at time 5196
Additional hops: 2656
Adding flit 115656 as NACK at time 5203
Reenqueueing errored packet 115236 at time 5210
Reenqueueing errored packet 115812 at time 5211
Additional hops: 2663
Adding flit 116212 as NACK at time 5215
Additional hops: 2667
Adding flit 116767 as NACK at time 5226
Reenqueueing errored packet 115656 at time 5228
Additional hops: 2674
Adding flit 116529 as NACK at time 5229
Reenqueueing errored packet 116212 at time 5230
Reenqueueing errored packet 116767 at time 5235
Reenqueueing errored packet 116529 at time 5244
Additional hops: 2683
Adding flit 117293 as NACK at time 5266
Additional hops: 2689
Adding flit 117790 as NACK at time 5280
Reenqueueing errored packet 117293 at time 5285
Reenqueueing errored packet 117790 at time 5293
Additional hops: 2699
Adding flit 117858 as NACK at time 5294
Additional hops: 2706
Adding flit 118171 as NACK at time 5297
Additional hops: 2715
Adding flit 118087 as NACK at time 5302
Additional hops: 2724
Adding flit 118161 as NACK at time 5303
Additional hops: 2737
Adding flit 117839 as NACK at time 5304
Reenqueueing errored packet 118171 at time 5312
Reenqueueing errored packet 117858 at time 5315
Reenqueueing errored packet 118087 at time 5321
Reenqueueing errored packet 118161 at time 5322
Reenqueueing errored packet 117839 at time 5331
Additional hops: 2748
Adding flit 118732 as NACK at time 5340
Additional hops: 2755
Adding flit 119430 as NACK at time 5360
Reenqueueing errored packet 118732 at time 5363
Additional hops: 2766
Adding flit 119403 as NACK at time 5369
Reenqueueing errored packet 119430 at time 5375
Reenqueueing errored packet 119403 at time 5392
Additional hops: 2773
Adding flit 120650 as NACK at time 5410
Additional hops: 2787
Adding flit 120228 as NACK at time 5416
Additional hops: 2793
Adding flit 120866 as NACK at time 5418
Reenqueueing errored packet 120650 at time 5425
Reenqueueing errored packet 120866 at time 5431
Reenqueueing errored packet 120228 at time 5445
Additional hops: 2798
Adding flit 121596 as NACK at time 5448
Additional hops: 2806
Adding flit 121653 as NACK at time 5458
Reenqueueing errored packet 121596 at time 5459
Reenqueueing errored packet 121653 at time 5475
Additional hops: 2813
Adding flit 122119 as NACK at time 5475
Additional hops: 2824
Adding flit 121976 as NACK at time 5483
Reenqueueing errored packet 122119 at time 5490
Additional hops: 2831
Adding flit 122751 as NACK at time 5505
Reenqueueing errored packet 121976 at time 5506
Uncorrectable 3
Additional hops: 2839
Adding flit 122772 as NACK at time 5508
Reenqueueing errored packet 122751 at time 5520
Additional hops: 2842
Adding flit 123432 as NACK at time 5522
Reenqueueing errored packet 122772 at time 5525
Additional hops: 2848
Adding flit 123309 as NACK at time 5527
Reenqueueing errored packet 123432 at time 5529
Additional hops: 2857
Adding flit 123154 as NACK at time 5529
Reenqueueing errored packet 123309 at time 5540
Reenqueueing errored packet 123154 at time 5548
Additional hops: 2865
Adding flit 124418 as NACK at time 5586
Additional hops: 2871
Adding flit 124658 as NACK at time 5591
Additional hops: 2880
Adding flit 124644 as NACK at time 5600
Reenqueueing errored packet 124418 at time 5603
Reenqueueing errored packet 124658 at time 5604
Reenqueueing errored packet 124644 at time 5619
Additional hops: 2882
Adding flit 125892 as NACK at time 5629
Reenqueueing errored packet 125892 at time 5634
Additional hops: 2890
Adding flit 126671 as NACK at time 5685
Additional hops: 2894
Adding flit 127074 as NACK at time 5690
Additional hops: 2904
Adding flit 126782 as NACK at time 5694
Reenqueueing errored packet 127074 at time 5699
Additional hops: 2913
Adding flit 126868 as NACK at time 5701
Reenqueueing errored packet 126671 at time 5702
Reenqueueing errored packet 126782 at time 5715
Reenqueueing errored packet 126868 at time 5720
Additional hops: 2922
Adding flit 127702 as NACK at time 5733
Additional hops: 2932
Adding flit 127963 as NACK at time 5750
Reenqueueing errored packet 127702 at time 5752
Uncorrectable 3
Additional hops: 2942
Adding flit 128095 as NACK at time 5757
Additional hops: 2952
Adding flit 128311 as NACK at time 5764
Reenqueueing errored packet 127963 at time 5771
Reenqueueing errored packet 128095 at time 5778
Additional hops: 2960
Adding flit 128868 as NACK at time 5784
Reenqueueing errored packet 128311 at time 5785
Additional hops: 2974
Adding flit 128575 as NACK at time 5790
Uncorrectable 3
Additional hops: 2982
Adding flit 128984 as NACK at time 5791
Additional hops: 2992
Adding flit 128866 as NACK at time 5791
Reenqueueing errored packet 128868 at time 5801
Reenqueueing errored packet 128984 at time 5808
Reenqueueing errored packet 128866 at time 5812
Additional hops: 3000
Adding flit 129448 as NACK at time 5813
Reenqueueing errored packet 128575 at time 5819
Additional hops: 3007
Adding flit 129640 as NACK at time 5822
Additional hops: 3017
Adding flit 129516 as NACK at time 5822
Additional hops: 3027
Adding flit 129468 as NACK at time 5826
Reenqueueing errored packet 129448 at time 5830
Reenqueueing errored packet 129640 at time 5837
Reenqueueing errored packet 129516 at time 5843
Reenqueueing errored packet 129468 at time 5847
Additional hops: 3035
Adding flit 130558 as NACK at time 5860
Additional hops: 3044
Adding flit 130651 as NACK at time 5867
Reenqueueing errored packet 130558 at time 5877
Reenqueueing errored packet 130651 at time 5886
Additional hops: 3058
Adding flit 131323 as NACK at time 5911
Additional hops: 3067
Adding flit 131929 as NACK at time 5924
Additional hops: 3073
Adding flit 132413 as NACK at time 5937
Reenqueueing errored packet 131323 at time 5940
Additional hops: 3082
Adding flit 132292 as NACK at time 5941
Reenqueueing errored packet 131929 at time 5943
Additional hops: 3091
Adding flit 132490 as NACK at time 5949
Reenqueueing errored packet 132413 at time 5950
Reenqueueing errored packet 132292 at time 5960
Additional hops: 3097
Adding flit 133005 as NACK at time 5964
Reenqueueing errored packet 132490 at time 5968
Reenqueueing errored packet 133005 at time 5977
Additional hops: 3107
Adding flit 133051 as NACK at time 5985
Additional hops: 3112
Adding flit 133533 as NACK at time 5986
Reenqueueing errored packet 133533 at time 5997
Reenqueueing errored packet 133051 at time 6006
Additional hops: 3115
Adding flit 134467 as NACK at time 6024
Additional hops: 3119
Adding flit 134484 as NACK at time 6024
Additional hops: 3124
Adding flit 134339 as NACK at time 6028
Additional hops: 3131
Adding flit 134380 as NACK at time 6030
Reenqueueing errored packet 134467 at time 6031
Reenqueueing errored packet 134484 at time 6033
Additional hops: 3137
Adding flit 134465 as NACK at time 6034
Additional hops: 3147
Adding flit 134249 as NACK at time 6034
Reenqueueing errored packet 134339 at time 6039
Reenqueueing errored packet 134380 at time 6045
Reenqueueing errored packet 134465 at time 6047
Additional hops: 3154
Adding flit 134703 as NACK at time 6047
Additional hops: 3163
Adding flit 134659 as NACK at time 6048
Reenqueueing errored packet 134249 at time 6055
Reenqueueing errored packet 134703 at time 6062
Additional hops: 3172
Adding flit 135051 as NACK at time 6065
Reenqueueing errored packet 134659 at time 6067
Additional hops: 3184
Adding flit 135071 as NACK at time 6076
Additional hops: 3193
Adding flit 135289 as NACK at time 6078
Additional hops: 3207
Adding flit 135019 as NACK at time 6080
Reenqueueing errored packet 135051 at time 6084
Reenqueueing errored packet 135289 at time 6097
Reenqueueing errored packet 135071 at time 6101
Reenqueueing errored packet 135019 at time 6109
Additional hops: 3217
Adding flit 135930 as NACK at time 6111
Additional hops: 3225
Adding flit 136202 as NACK at time 6112
Reenqueueing errored packet 136202 at time 6129
Reenqueueing errored packet 135930 at time 6132
Uncorrectable 3
Additional hops: 3238
Adding flit 136403 as NACK at time 6142
Uncorrectable 3
Additional hops: 3248
Adding flit 137027 as NACK at time 6155
Additional hops: 3256
Adding flit 137210 as NACK at time 6157
Reenqueueing errored packet 136403 at time 6169
Additional hops: 3267
Adding flit 137110 as NACK at time 6169
Reenqueueing errored packet 137210 at time 6174
Additional hops: 3272
Adding flit 137824 as NACK at time 6175
Reenqueueing errored packet 137027 at time 6176
Additional hops: 3284
Adding flit 137557 as NACK at time 6182
Reenqueueing errored packet 137824 at time 6186
Reenqueueing errored packet 137110 at time 6192
Additional hops: 3291
Adding flit 138217 as NACK at time 6197
Reenqueueing errored packet 137557 at time 6207
Reenqueueing errored packet 138217 at time 6212
Additional hops: 3299
Adding flit 139087 as NACK at time 6242
Additional hops: 3304
Adding flit 139614 as NACK at time 6254
Reenqueueing errored packet 139087 at time 6259
Reenqueueing errored packet 139614 at time 6265
Additional hops: 3309
Adding flit 140059 as NACK at time 6275
Additional hops: 3320
Adding flit 139688 as NACK at time 6276
Reenqueueing errored packet 140059 at time 6286
Reenqueueing errored packet 139688 at time 6299
Additional hops: 3328
Adding flit 140646 as NACK at time 6315
Additional hops: 3338
Adding flit 140763 as NACK at time 6325
Additional hops: 3347
Adding flit 140975 as NACK at time 6329
Reenqueueing errored packet 140646 at time 6332
Additional hops: 3353
Adding flit 141149 as NACK at time 6332
Reenqueueing errored packet 141149 at time 6345
Reenqueueing errored packet 140763 at time 6346
Reenqueueing errored packet 140975 at time 6348
Additional hops: 3356
Adding flit 141968 as NACK at time 6357
Reenqueueing errored packet 141968 at time 6364
Additional hops: 3362
Adding flit 142420 as NACK at time 6387
Uncorrectable 3
Additional hops: 3373
Adding flit 142134 as NACK at time 6394
Reenqueueing errored packet 142420 at time 6400
Additional hops: 3382
Adding flit 142767 as NACK at time 6411
Additional hops: 3387
Adding flit 143049 as NACK at time 6413
Reenqueueing errored packet 142134 at time 6417
Reenqueueing errored packet 143049 at time 6424
Reenqueueing errored packet 142767 at time 6430
Additional hops: 3396
Adding flit 143219 as NACK at time 6438
Reenqueueing errored packet 143219 at time 6457
Additional hops: 3408
Adding flit 143875 as NACK at time 6472
Additional hops: 3415
Adding flit 144482 as NACK at time 6484
Additional hops: 3419
Adding flit 144715 as NACK at time 6486
Additional hops: 3432
Adding flit 144125 as NACK at time 6492
Reenqueueing errored packet 144715 at time 6495
Reenqueueing errored packet 143875 at time 6497
Additional hops: 3439
Adding flit 144729 as NACK at time 6498
Reenqueueing errored packet 144482 at time 6499
Reenqueueing errored packet 144729 at time 6513
Reenqueueing errored packet 144125 at time 6519
Additional hops: 3444
Adding flit 145592 as NACK at time 6530
Reenqueueing errored packet 145592 at time 6541
Additional hops: 3448
Adding flit 146031 as NACK at time 6546
Additional hops: 3457
Adding flit 145802 as NACK at time 6551
Reenqueueing errored packet 146031 at time 6555
Reenqueueing errored packet 145802 at time 6570
Additional hops: 3464
Adding flit 146399 as NACK at time 6572
Additional hops: 3470
Adding flit 146796 as NACK at time 6583
Additional hops: 3477
Adding flit 146687 as NACK at time 6584
Additional hops: 3484
Adding flit 146744 as NACK at time 6586
Reenqueueing errored packet 146399 at time 6587
Additional hops: 3492
Adding flit 146906 as NACK at time 6594
Reenqueueing errored packet 146796 at time 6596
Additional hops: 3500
Adding flit 146942 as NACK at time 6596
Reenqueueing errored packet 146687 at time 6599
Reenqueueing errored packet 146744 at time 6601
Additional hops: 3505
Adding flit 147217 as NACK at time 6604
Reenqueueing errored packet 146906 at time 6611
Reenqueueing errored packet 146942 at time 6613
Additional hops: 3512
Adding flit 147406 as NACK at time 6614
Reenqueueing errored packet 147217 at time 6615
Reenqueueing errored packet 147406 at time 6629
Additional hops: 3521
Adding flit 148071 as NACK at time 6652
Additional hops: 3532
Adding flit 147883 as NACK at time 6654
Additional hops: 3543
Adding flit 147983 as NACK at time 6657
Additional hops: 3552
Adding flit 148264 as NACK at time 6666
Reenqueueing errored packet 148071 at time 6671
Reenqueueing errored packet 147883 at time 6677
Reenqueueing errored packet 147983 at time 6680
Additional hops: 3558
Adding flit 149013 as NACK at time 6684
Reenqueueing errored packet 148264 at time 6685
Additional hops: 3569
Adding flit 148782 as NACK at time 6693
Reenqueueing errored packet 149013 at time 6697
Reenqueueing errored packet 148782 at time 6716
Additional hops: 3573
Adding flit 150382 as NACK at time 6738
Additional hops: 3587
Adding flit 149652 as NACK at time 6743
Reenqueueing errored packet 150382 at time 6747
Additional hops: 3596
Adding flit 150360 as NACK at time 6755
Additional hops: 3602
Adding flit 150616 as NACK at time 6757
Reenqueueing errored packet 150616 at time 6770
Additional hops: 3614
Adding flit 150469 as NACK at time 6770
Reenqueueing errored packet 149652 at time 6772
Reenqueueing errored packet 150360 at time 6774
Additional hops: 3621
Adding flit 151047 as NACK at time 6777
Reenqueueing errored packet 151047 at time 6792
Reenqueueing errored packet 150469 at time 6795
Additional hops: 3632
Adding flit 151654 as NACK at time 6817
Additional hops: 3642
Adding flit 151782 as NACK at time 6824
Additional hops: 3647
Adding flit 152365 as NACK at time 6831
Additional hops: 3649
Adding flit 152601 as NACK at time 6834
Additional hops: 3655
Adding flit 152361 as NACK at time 6834
Reenqueueing errored packet 152601 at time 6839
Additional hops: 3658
Adding flit 152716 as NACK at time 6839
Reenqueueing errored packet 151654 at time 6840
Additional hops: 3665
Adding flit 152411 as NACK at time 6840
Reenqueueing errored packet 152365 at time 6842
Reenqueueing errored packet 151782 at time 6845
Reenqueueing errored packet 152716 at time 6846
Reenqueueing errored packet 152361 at time 6847
Reenqueueing errored packet 152411 at time 6855
Additional hops: 3677
Adding flit 152435 as NACK at time 6862
Additional hops: 3685
Adding flit 153088 as NACK at time 6871
Additional hops: 3696
Adding flit 153040 as NACK at time 6881
Reenqueueing errored packet 152435 at time 6887
Reenqueueing errored packet 153088 at time 6888
Additional hops: 3700
Adding flit 154003 as NACK at time 6899
Reenqueueing errored packet 153040 at time 6904
Reenqueueing errored packet 154003 at time 6908
Additional hops: 3706
Adding flit 154239 as NACK at time 6917
Additional hops: 3712
Adding flit 154308 as NACK at time 6920
Reenqueueing errored packet 154239 at time 6930
Reenqueueing errored packet 154308 at time 6933
Additional hops: 3719
Adding flit 154811 as NACK at time 6945
Additional hops: 3728
Adding flit 154930 as NACK at time 6955
Reenqueueing errored packet 154811 at time 6960
Reenqueueing errored packet 154930 at time 6974
Additional hops: 3734
Adding flit 156274 as NACK at time 7008
Additional hops: 3746
Adding flit 155883 as NACK at time 7010
Reenqueueing errored packet 156274 at time 7021
Additional hops: 3755
Adding flit 156635 as NACK at time 7034
Reenqueueing errored packet 155883 at time 7035
Additional hops: 3764
Adding flit 156974 as NACK at time 7046
Reenqueueing errored packet 156635 at time 7053
Additional hops: 3776
Adding flit 157011 as NACK at time 7064
Reenqueueing errored packet 156974 at time 7065
Additional hops: 3781
Adding flit 157943 as NACK at time 7080
Reenqueueing errored packet 157011 at time 7089
Reenqueueing errored packet 157943 at time 7091
Additional hops: 3787
Adding flit 158398 as NACK at time 7102
Additional hops: 3796
Adding flit 158255 as NACK at time 7106
Reenqueueing errored packet 158398 at time 7115
Additional hops: 3808
Adding flit 158470 as NACK at time 7124
Reenqueueing errored packet 158255 at time 7125
Additional hops: 3813
Adding flit 159109 as NACK at time 7134
Additional hops: 3822
Adding flit 158895 as NACK at time 7138
Reenqueueing errored packet 159109 at time 7145
Reenqueueing errored packet 158470 at time 7149
Reenqueueing errored packet 158895 at time 7157
Additional hops: 3832
Adding flit 159893 as NACK at time 7178
Reenqueueing errored packet 159893 at time 7199
Additional hops: 3842
Adding flit 160640 as NACK at time 7213
Additional hops: 3847
Adding flit 161357 as NACK at time 7228
Reenqueueing errored packet 160640 at time 7234
Additional hops: 3855
Adding flit 161334 as NACK at time 7237
Reenqueueing errored packet 161357 at time 7239
Additional hops: 3862
Adding flit 161378 as NACK at time 7240
Additional hops: 3868
Adding flit 161734 as NACK at time 7248
Additional hops: 3876
Adding flit 161494 as NACK at time 7249
Reenqueueing errored packet 161334 at time 7254
Reenqueueing errored packet 161378 at time 7255
Reenqueueing errored packet 161734 at time 7261
Reenqueueing errored packet 161494 at time 7266
Additional hops: 3883
Adding flit 162177 as NACK at time 7269
Additional hops: 3889
Adding flit 162363 as NACK at time 7274
Additional hops: 3896
Adding flit 162396 as NACK at time 7278
Reenqueueing errored packet 162177 at time 7284
Additional hops: 3905
Adding flit 162354 as NACK at time 7284
Reenqueueing errored packet 162363 at time 7287
Reenqueueing errored packet 162396 at time 7293
Additional hops: 3914
Adding flit 162380 as NACK at time 7294
Reenqueueing errored packet 162354 at time 7303
Reenqueueing errored packet 162380 at time 7313
Additional hops: 3922
Adding flit 163537 as NACK at time 7337
Reenqueueing errored packet 163537 at time 7354
Additional hops: 3931
Adding flit 164057 as NACK at time 7358
Additional hops: 3943
Adding flit 163828 as NACK at time 7361
Uncorrectable 3
Additional hops: 3954
Adding flit 163745 as NACK at time 7361
Additional hops: 3965
Adding flit 164021 as NACK at time 7368
Uncorrectable 3
Additional hops: 3975
Adding flit 164298 as NACK at time 7372
Reenqueueing errored packet 164057 at time 7377
Additional hops: 3981
Adding flit 164566 as NACK at time 7378
Reenqueueing errored packet 163745 at time 7384
Reenqueueing errored packet 163828 at time 7386
Reenqueueing errored packet 164566 at time 7391
Reenqueueing errored packet 164021 at time 7391
Reenqueueing errored packet 164298 at time 7393
Additional hops: 3989
Adding flit 165355 as NACK at time 7413
Additional hops: 3999
Adding flit 165118 as NACK at time 7414
Reenqueueing errored packet 165355 at time 7430
Reenqueueing errored packet 165118 at time 7435
Additional hops: 4013
Adding flit 165610 as NACK at time 7453
Additional hops: 4022
Adding flit 166146 as NACK at time 7454
Reenqueueing errored packet 166146 at time 7473
Reenqueueing errored packet 165610 at time 7482
Additional hops: 4028
Adding flit 166896 as NACK at time 7482
Reenqueueing errored packet 166896 at time 7495
Additional hops: 4034
Adding flit 167300 as NACK at time 7502
Reenqueueing errored packet 167300 at time 7515
Additional hops: 4046
Adding flit 168181 as NACK at time 7559
Additional hops: 4053
Adding flit 168794 as NACK at time 7566
Uncorrectable 3
Additional hops: 4066
Adding flit 168667 as NACK at time 7579
Reenqueueing errored packet 168794 at time 7581
Additional hops: 4077
Adding flit 168901 as NACK at time 7583
Reenqueueing errored packet 168181 at time 7584
Additional hops: 4084
Adding flit 169255 as NACK at time 7586
Additional hops: 4092
Adding flit 169270 as NACK at time 7594
Reenqueueing errored packet 169255 at time 7601
Reenqueueing errored packet 168901 at time 7606
Reenqueueing errored packet 168667 at time 7606
Additional hops: 4104
Adding flit 169398 as NACK at time 7607
Reenqueueing errored packet 169270 at time 7611
Additional hops: 4110
Adding flit 169971 as NACK at time 7614
Uncorrectable 3
Additional hops: 4118
Adding flit 169914 as NACK at time 7618
Reenqueueing errored packet 169971 at time 7627
Reenqueueing errored packet 169398 at time 7632
Reenqueueing errored packet 169914 at time 7635
Additional hops: 4122
Adding flit 171292 as NACK at time 7669
Reenqueueing errored packet 171292 at time 7678
Additional hops: 4134
Adding flit 171029 as NACK at time 7690
Additional hops: 4139
Adding flit 171910 as NACK at time 7699
Additional hops: 4148
Adding flit 171730 as NACK at time 7703
Reenqueueing errored packet 171910 at time 7710
Reenqueueing errored packet 171029 at time 7715
Reenqueueing errored packet 171730 at time 7722
Uncorrectable 3
Additional hops: 4154
Adding flit 172417 as NACK at time 7725
Additional hops: 4165
Adding flit 172378 as NACK at time 7733
Reenqueueing errored packet 172417 at time 7738
Reenqueueing errored packet 172378 at time 7756
Additional hops: 4172
Adding flit 173433 as NACK at time 7770
Additional hops: 4180
Adding flit 173517 as NACK at time 7781
Reenqueueing errored packet 173433 at time 7785
Additional hops: 4188
Adding flit 173627 as NACK at time 7786
Reenqueueing errored packet 173517 at time 7798
Additional hops: 4191
Adding flit 174339 as NACK at time 7799
Additional hops: 4200
Adding flit 173727 as NACK at time 7799
Reenqueueing errored packet 173627 at time 7803
Reenqueueing errored packet 174339 at time 7806
Reenqueueing errored packet 173727 at time 7818
Additional hops: 4208
Adding flit 174540 as NACK at time 7824
Reenqueueing errored packet 174540 at time 7841
Uncorrectable 3
Additional hops: 4217
Adding flit 175000 as NACK at time 7845
Additional hops: 4225
Adding flit 175273 as NACK at time 7861
Reenqueueing errored packet 175000 at time 7864
Additional hops: 4231
Adding flit 175737 as NACK at time 7869
Additional hops: 4240
Adding flit 175506 as NACK at time 7870
Reenqueueing errored packet 175273 at time 7878
Reenqueueing errored packet 175737 at time 7882
Reenqueueing errored packet 175506 at time 7889
Additional hops: 4246
Adding flit 176322 as NACK at time 7895
Reenqueueing errored packet 176322 at time 7908
Additional hops: 4256
Adding flit 176359 as NACK at time 7916
Additional hops: 4270
Adding flit 176236 as NACK at time 7916
Additional hops: 4280
Adding flit 176900 as NACK at time 7932
Reenqueueing errored packet 176359 at time 7937
Reenqueueing errored packet 176236 at time 7945
Additional hops: 4287
Adding flit 177506 as NACK at time 7952
Reenqueueing errored packet 176900 at time 7953
Additional hops: 4292
Adding flit 177713 as NACK at time 7955
Additional hops: 4301
Adding flit 177575 as NACK at time 7962
Reenqueueing errored packet 177713 at time 7966
Reenqueueing errored packet 177506 at time 7967
Additional hops: 4304
Adding flit 178204 as NACK at time 7972
Reenqueueing errored packet 178204 at time 7979
Reenqueueing errored packet 177575 at time 7981
Additional hops: 4309
Adding flit 178356 as NACK at time 7984
Reenqueueing errored packet 178356 at time 7995
Additional hops: 4315
Adding flit 178777 as NACK at time 8003
Additional hops: 4321
Adding flit 178760 as NACK at time 8010
Reenqueueing errored packet 178777 at time 8016
Additional hops: 4333
Adding flit 178633 as NACK at time 8018
Reenqueueing errored packet 178760 at time 8023
Additional hops: 4344
Adding flit 178769 as NACK at time 8024
Additional hops: 4355
Adding flit 179119 as NACK at time 8035
Additional hops: 4363
Adding flit 179392 as NACK at time 8041
Reenqueueing errored packet 178633 at time 8043
Reenqueueing errored packet 178769 at time 8047
Additional hops: 4369
Adding flit 179825 as NACK at time 8051
Additional hops: 4378
Adding flit 179661 as NACK at time 8052
Reenqueueing errored packet 179392 at time 8058
Reenqueueing errored packet 179119 at time 8058
Additional hops: 4387
Adding flit 179881 as NACK at time 8060
Additional hops: 4393
Adding flit 180081 as NACK at time 8062
Reenqueueing errored packet 179825 at time 8064
Reenqueueing errored packet 179661 at time 8071
Reenqueueing errored packet 180081 at time 8075
Reenqueueing errored packet 179881 at time 8079
Additional hops: 4396
Adding flit 181399 as NACK at time 8114
Additional hops: 4407
Adding flit 180992 as NACK at time 8119
Reenqueueing errored packet 181399 at time 8121
Additional hops: 4418
Adding flit 181049 as NACK at time 8123
Additional hops: 4427
Adding flit 181209 as NACK at time 8125
Additional hops: 4431
Adding flit 181608 as NACK at time 8127
Additional hops: 4438
Adding flit 181427 as NACK at time 8129
Reenqueueing errored packet 181608 at time 8136
Reenqueueing errored packet 180992 at time 8142
Additional hops: 4451
Adding flit 181381 as NACK at time 8143
Reenqueueing errored packet 181427 at time 8144
Reenqueueing errored packet 181209 at time 8144
Reenqueueing errored packet 181049 at time 8146
Additional hops: 4455
Adding flit 182248 as NACK at time 8156
Reenqueueing errored packet 182248 at time 8165
Reenqueueing errored packet 181381 at time 8170
Additional hops: 4466
Adding flit 182789 as NACK at time 8203
Additional hops: 4471
Adding flit 183285 as NACK at time 8204
Additional hops: 4479
Adding flit 183122 as NACK at time 8210
Reenqueueing errored packet 183285 at time 8215
Reenqueueing errored packet 182789 at time 8226
Reenqueueing errored packet 183122 at time 8227
Additional hops: 4485
Adding flit 183939 as NACK at time 8238
Additional hops: 4492
Adding flit 183904 as NACK at time 8240
Additional hops: 4500
Adding flit 183733 as NACK at time 8240
Reenqueueing errored packet 183939 at time 8251
Reenqueueing errored packet 183904 at time 8255
Reenqueueing errored packet 183733 at time 8257
Additional hops: 4507
Adding flit 184611 as NACK at time 8270
Additional hops: 4513
Adding flit 184600 as NACK at time 8270
Reenqueueing errored packet 184600 at time 8283
Reenqueueing errored packet 184611 at time 8285
Additional hops: 4522
Adding flit 185071 as NACK at time 8300
Additional hops: 4527
Adding flit 185574 as NACK at time 8308
Additional hops: 4538
Adding flit 185210 as NACK at time 8311
Additional hops: 4547
Adding flit 185357 as NACK at time 8317
Reenqueueing errored packet 185574 at time 8319
Reenqueueing errored packet 185071 at time 8319
Additional hops: 4553
Adding flit 185970 as NACK at time 8327
Reenqueueing errored packet 185210 at time 8334
Additional hops: 4561
Adding flit 185974 as NACK at time 8335
Reenqueueing errored packet 185357 at time 8336
Additional hops: 4573
Adding flit 185814 as NACK at time 8339
Reenqueueing errored packet 185970 at time 8340
Additional hops: 4576
Adding flit 186600 as NACK at time 8347
Reenqueueing errored packet 185974 at time 8352
Reenqueueing errored packet 186600 at time 8354
Reenqueueing errored packet 185814 at time 8364
Additional hops: 4582
Adding flit 186888 as NACK at time 8369
Reenqueueing errored packet 186888 at time 8382
Additional hops: 4595
Adding flit 186906 as NACK at time 8392
Additional hops: 4602
Adding flit 187470 as NACK at time 8395
Additional hops: 4614
Adding flit 187255 as NACK at time 8403
Reenqueueing errored packet 187470 at time 8410
Reenqueueing errored packet 186906 at time 8419
Additional hops: 4623
Adding flit 187868 as NACK at time 8421
Reenqueueing errored packet 187255 at time 8428
Additional hops: 4628
Adding flit 188527 as NACK at time 8439
Reenqueueing errored packet 187868 at time 8440
Additional hops: 4641
Adding flit 187998 as NACK at time 8441
Additional hops: 4645
Adding flit 188757 as NACK at time 8443
Additional hops: 4651
Adding flit 188591 as NACK at time 8443
Additional hops: 4657
Adding flit 188675 as NACK at time 8449
Reenqueueing errored packet 188527 at time 8450
Reenqueueing errored packet 188757 at time 8452
Reenqueueing errored packet 188591 at time 8456
Reenqueueing errored packet 188675 at time 8462
Reenqueueing errored packet 187998 at time 8468
Additional hops: 4665
Adding flit 189046 as NACK at time 8471
Additional hops: 4667
Adding flit 189777 as NACK at time 8482
Reenqueueing errored packet 189777 at time 8487
Reenqueueing errored packet 189046 at time 8488
Additional hops: 4674
Adding flit 189587 as NACK at time 8490
Additional hops: 4683
Adding flit 189696 as NACK at time 8503
Reenqueueing errored packet 189587 at time 8505
Additional hops: 4689
Adding flit 190194 as NACK at time 8515
Additional hops: 4696
Adding flit 190228 as NACK at time 8521
Reenqueueing errored packet 189696 at time 8522
Additional hops: 4702
Adding flit 190370 as NACK at time 8524
Additional hops: 4711
Adding flit 190179 as NACK at time 8527
Reenqueueing errored packet 190194 at time 8528
Reenqueueing errored packet 190228 at time 8536
Reenqueueing errored packet 190370 at time 8537
Additional hops: 4720
Adding flit 190643 as NACK at time 8544
Reenqueueing errored packet 190179 at time 8546
Reenqueueing errored packet 190643 at time 8563
8574 | node52 | Enqueuing flit 192022 (packet 192022) at time 8574.
8574 | traffic_manager | Finding output VC for flit 192022:
8574 | traffic_manager |   Selected output VC 1.
8574 | network_0/router_6_4 | Adding VC range [0,1] at output port 3 for flit 192022 (input port 4, destination 44).
8574 | node52 | Generating lookahead routing info for flit 192022.
8574 | node52 | Injecting flit 192022 into subnet 0 at time 8574 with priority 0.
8575 | network_0/network_0_fchan_ingress52 | Beginning channel traversal for flit 192022 with delay 1.
8575 | network_0/network_0_fchan_ingress52 | Completed channel traversal for flit 192022.
8576 | network_0/router_6_4 | Received flit 192022 from channel at input 4.
8576 | network_0/router_6_4 | Adding flit 192022 to VC 1 at input 4 (state: idle, empty).
8576 | network_0/router_6_4 | Using precomputed lookahead routing information for VC 1 at input 4 (front: 192022).
8576 | network_0/router_6_4/buf_4/vc_1 | Changing state from idle to vc_alloc.
8576 | network_0/router_6_4 | Beginning VC allocation for VC 1 at input 4 (front: 192022).
8576 | network_0/router_6_4 |   Requesting VC 0 at output 3 (in_pri: 0, out_pri: 0).
8576 | network_0/router_6_4 |   Requesting VC 1 at output 3 (in_pri: 0, out_pri: 0).
8576 | network_0/router_6_4/vc_allocator | Input requests = [ 2 -> [ 0@0 ]  9 -> [ 6@0 7@0 ]  ], output requests = [ 0 -> [ 2@0 ]  6 -> [ 9@0 ]  7 -> [ 9@0 ]  ].
8576 | network_0/router_6_4/vc_allocator | Input grants = [ 2 -> 0  9 -> 6  ], output grants = [ 0 -> 2  6 -> 9  ].
8576 | network_0/router_6_4 | Assigning VC 0 at output 3 to VC 1 at input 4.
8576 | network_0/router_6_4 | Completed VC allocation for VC 1 at input 4 (front: 192022).
8576 | network_0/router_6_4 |   Acquiring assigned VC 0 at output 3.
8576 | network_0/router_6_4/buf_4/vc_1 | Changing state from vc_alloc to active.
8576 | network_0/router_6_4 | Beginning switch allocation for VC 1 at input 4 (front: 192022).
8576 | network_0/router_6_4 |   Requesting output 3.0 (non-spec, pri: 0).
8576 | network_0/router_6_4/sw_allocator | Input requests = [ 1 -> [ 0@0 ]  4 -> [ 3@0 ]  ], output requests = [ 0 -> [ 1@0 ]  3 -> [ 4@0 ]  ].
8576 | network_0/router_6_4/sw_allocator | Input grants = [ 1 -> 0  4 -> 3  ], output grants = [ 0 -> 1  3 -> 4  ].
8576 | network_0/router_6_4 | Assigning output 3.0 to VC 1 at input 4.0.
8576 | network_0/router_6_4 | Completed switch allocation for VC 1 at input 4 (front: 192022).
8576 | network_0/router_6_4 |   Scheduling switch connection from input 4.0 to output 3.0.
8576 | network_0/router_6_4 | Updating lookahead routing information for flit 192022.
8576 | network_0/router_5_4 | Adding VC range [0,1] at output port 4 for flit 192022 (input port 2, destination 44).
8577 | network_0/router_6_4 | Beginning crossbar traversal for flit 192022 from input 4.0 to output 3.0.
8577 | network_0/router_6_4 | Completed crossbar traversal for flit 192022 from input 4.0 to output 3.0.
8577 | network_0/router_6_4 | Buffering flit 192022 at output 3.
8577 | network_0/router_6_4 | Sending flit 192022 to channel at output 3.
8578 | network_0/network_0_fchan_211 | Beginning channel traversal for flit 192022 with delay 1.
8578 | network_0/network_0_fchan_211 | Completed channel traversal for flit 192022.
8579 | network_0/router_5_4 | Received flit 192022 from channel at input 2.
8579 | network_0/router_5_4 | Adding flit 192022 to VC 0 at input 2 (state: idle, empty).
8579 | network_0/router_5_4 | Using precomputed lookahead routing information for VC 0 at input 2 (front: 192022).
8579 | network_0/router_5_4/buf_2/vc_0 | Changing state from idle to vc_alloc.
8579 | network_0/router_5_4 | Beginning VC allocation for VC 0 at input 2 (front: 192022).
8579 | network_0/router_5_4 |   Requesting VC 0 at output 4 (in_pri: 0, out_pri: 0).
8579 | network_0/router_5_4 |   Requesting VC 1 at output 4 (in_pri: 0, out_pri: 0).
8579 | network_0/router_5_4/vc_allocator | Input requests = [ 2 -> [ 6@0 7@0 ]  4 -> [ 8@0 9@0 ]  7 -> [ 8@0 9@0 ]  ], output requests = [ 6 -> [ 2@0 ]  7 -> [ 2@0 ]  8 -> [ 4@0 7@0 ]  9 -> [ 4@0 7@0 ]  ].
8579 | network_0/router_5_4/vc_allocator | Input grants = [ 2 -> 6  7 -> 8  ], output grants = [ 6 -> 2  8 -> 7  ].
8579 | network_0/router_5_4 | VC allocation failed for VC 0 at input 2.
8579 | network_0/router_5_4 | Completed VC allocation for VC 0 at input 2 (front: 192022).
8579 | network_0/router_5_4 |   No output VC allocated.
8579 | network_0/router_5_4 | Beginning VC allocation for VC 0 at input 2 (front: 192022).
8579 | network_0/router_5_4 |   VC 0 at output 4 is in use by VC 1 at input 3 (front flit: 191657).
8579 | network_0/router_5_4 |   Requesting VC 1 at output 4 (in_pri: 0, out_pri: 0).
8579 | network_0/router_5_4/vc_allocator | Input requests = [ 4 -> [ 9@0 ]  ], output requests = [ 9 -> [ 4@0 ]  ].
8579 | network_0/router_5_4/vc_allocator | Input grants = [ 4 -> 9  ], output grants = [ 9 -> 4  ].
8579 | network_0/router_5_4 | Assigning VC 1 at output 4 to VC 0 at input 2.
8579 | network_0/router_5_4 | Completed VC allocation for VC 0 at input 2 (front: 192022).
8579 | network_0/router_5_4 |   Acquiring assigned VC 1 at output 4.
8579 | network_0/router_5_4/buf_2/vc_0 | Changing state from vc_alloc to active.
8580 | network_0/router_5_4 | Beginning switch allocation for VC 0 at input 2 (front: 192022).
8580 | network_0/router_5_4 |   Requesting output 4.0 (non-spec, pri: 0).
8580 | network_0/router_5_4/sw_allocator | Input requests = [ 2 -> [ 4@0 ]  ], output requests = [ 4 -> [ 2@0 ]  ].
8580 | network_0/router_5_4/sw_allocator | Input grants = [ 2 -> 4  ], output grants = [ 4 -> 2  ].
8580 | network_0/router_5_4 | Assigning output 4.0 to VC 0 at input 2.0.
8580 | network_0/router_5_4 | Completed switch allocation for VC 0 at input 2 (front: 192022).
8580 | network_0/router_5_4 |   Scheduling switch connection from input 2.0 to output 4.0.
8580 | network_0/router_5_4 | Beginning crossbar traversal for flit 192022 from input 2.0 to output 4.0.
8580 | network_0/router_5_4 | Completed crossbar traversal for flit 192022 from input 2.0 to output 4.0.
8580 | network_0/router_5_4 | Buffering flit 192022 at output 4.
8581 | network_0/router_5_4 | Sending flit 192022 to channel at output 4.
8582 | network_0/network_0_fchan_egress44 | Beginning channel traversal for flit 192022 with delay 1.
8582 | network_0/network_0_fchan_egress44 | Completed channel traversal for flit 192022.
8583 | node44 | Ejecting flit 192022 (packet 192022) from VC 1.
8583 | node44 | Injecting credit for VC 1 into subnet 0.
8583 | node44 | Retiring flit 192022 (packet 192022, src = 52, dest = 44, hops = 2, flat = 9).
8583 | node44 | Retiring packet 192022 (plat = 9, nlat = 9, frag = 0, src = 52, dest = 44).
Additional hops: 4731
Adding flit 191458 as NACK at time 8586
Additional hops: 4744
Adding flit 191336 as NACK at time 8587
Additional hops: 4753
Adding flit 191646 as NACK at time 8590
Additional hops: 4761
Adding flit 191754 as NACK at time 8591
Additional hops: 4768
Adding flit 192109 as NACK at time 8607
Reenqueueing errored packet 191754 at time 8608
Reenqueueing errored packet 191646 at time 8609
Reenqueueing errored packet 191458 at time 8609
Additional hops: 4774
Adding flit 192389 as NACK at time 8612
Reenqueueing errored packet 191336 at time 8614
Reenqueueing errored packet 192109 at time 8622
Reenqueueing errored packet 192389 at time 8625
Additional hops: 4782
Adding flit 192634 as NACK at time 8629
Additional hops: 4786
Adding flit 193164 as NACK at time 8641
Reenqueueing errored packet 192634 at time 8646
Additional hops: 4795
Adding flit 192913 as NACK at time 8646
Reenqueueing errored packet 193164 at time 8650
Reenqueueing errored packet 192913 at time 8665
Additional hops: 4807
Adding flit 193210 as NACK at time 8669
Additional hops: 4819
Adding flit 193664 as NACK at time 8686
Additional hops: 4827
Adding flit 193964 as NACK at time 8687
Additional hops: 4838
Adding flit 193846 as NACK at time 8690
Reenqueueing errored packet 193210 at time 8694
Reenqueueing errored packet 193964 at time 8704
Reenqueueing errored packet 193664 at time 8711
Reenqueueing errored packet 193846 at time 8713
Additional hops: 4848
Adding flit 194803 as NACK at time 8738
Additional hops: 4859
Adding flit 195251 as NACK at time 8755
Reenqueueing errored packet 194803 at time 8759
Reenqueueing errored packet 195251 at time 8778
Additional hops: 4864
Adding flit 196266 as NACK at time 8784
Reenqueueing errored packet 196266 at time 8795
Uncorrectable 3
Additional hops: 4869
Adding flit 196580 as NACK at time 8795
Reenqueueing errored packet 196580 at time 8806
Additional hops: 4874
Adding flit 196861 as NACK at time 8810
Additional hops: 4883
Adding flit 196552 as NACK at time 8811
Reenqueueing errored packet 196861 at time 8821
Reenqueueing errored packet 196552 at time 8830
Additional hops: 4894
Adding flit 197147 as NACK at time 8839
Additional hops: 4900
Adding flit 197582 as NACK at time 8843
Additional hops: 4910
Adding flit 197405 as NACK at time 8848
Additional hops: 4919
Adding flit 197449 as NACK at time 8849
Additional hops: 4926
Adding flit 197709 as NACK at time 8853
Reenqueueing errored packet 197582 at time 8856
Reenqueueing errored packet 197147 at time 8862
Additional hops: 4934
Adding flit 197959 as NACK at time 8864
Reenqueueing errored packet 197709 at time 8868
Reenqueueing errored packet 197449 at time 8868
Reenqueueing errored packet 197405 at time 8869
Additional hops: 4944
Adding flit 197946 as NACK at time 8871
Additional hops: 4956
Adding flit 197884 as NACK at time 8875
Reenqueueing errored packet 197959 at time 8881
Reenqueueing errored packet 197946 at time 8892
Reenqueueing errored packet 197884 at time 8900
Additional hops: 4968
Adding flit 198689 as NACK at time 8909
Additional hops: 4978
Adding flit 198574 as NACK at time 8909
Additional hops: 4987
Adding flit 199002 as NACK at time 8916
Additional hops: 4994
Adding flit 199177 as NACK at time 8917
Additional hops: 4998
Adding flit 199552 as NACK at time 8924
Reenqueueing errored packet 198574 at time 8930
Reenqueueing errored packet 199177 at time 8932
Reenqueueing errored packet 199552 at time 8933
Reenqueueing errored packet 198689 at time 8934
Reenqueueing errored packet 199002 at time 8935
Additional hops: 5005
Adding flit 199561 as NACK at time 8937
Reenqueueing errored packet 199561 at time 8952
Additional hops: 5017
Adding flit 199637 as NACK at time 8953
Reenqueueing errored packet 199637 at time 8978
Uncorrectable 3
Additional hops: 5025
Adding flit 200512 as NACK at time 8979
Additional hops: 5033
Adding flit 200494 as NACK at time 8980
Additional hops: 5042
Adding flit 200429 as NACK at time 8980
Additional hops: 5048
Adding flit 200726 as NACK at time 8983
Additional hops: 5054
Adding flit 200786 as NACK at time 8985
Additional hops: 5064
Adding flit 200478 as NACK at time 8986
Additional hops: 5070
Adding flit 200862 as NACK at time 8988
Reenqueueing errored packet 200726 at time 8996
Reenqueueing errored packet 200512 at time 8996
Reenqueueing errored packet 200494 at time 8997
Reenqueueing errored packet 200786 at time 8998
Reenqueueing errored packet 200429 at time 8999
Reenqueueing errored packet 200862 at time 9001
Reenqueueing errored packet 200478 at time 9007
Additional hops: 5077
Adding flit 201121 as NACK at time 9007
Additional hops: 5085
Adding flit 201102 as NACK at time 9007
Additional hops: 5090
Adding flit 201638 as NACK at time 9020
Reenqueueing errored packet 201121 at time 9022
Reenqueueing errored packet 201102 at time 9024
Reenqueueing errored packet 201638 at time 9031
Additional hops: 5097
Adding flit 201840 as NACK at time 9038
Additional hops: 5108
Adding flit 201871 as NACK at time 9052
Reenqueueing errored packet 201840 at time 9053
Additional hops: 5118
Adding flit 202132 as NACK at time 9059
Reenqueueing errored packet 201871 at time 9075
Additional hops: 5125
Adding flit 202694 as NACK at time 9078
Reenqueueing errored packet 202132 at time 9080
Additional hops: 5137
Adding flit 202455 as NACK at time 9080
Additional hops: 5145
Adding flit 202781 as NACK at time 9084
Reenqueueing errored packet 202694 at time 9093
Additional hops: 5153
Adding flit 203049 as NACK at time 9097
Reenqueueing errored packet 202781 at time 9101
Reenqueueing errored packet 202455 at time 9105
Additional hops: 5162
Adding flit 203219 as NACK at time 9108
Reenqueueing errored packet 203049 at time 9114
Additional hops: 5169
Adding flit 203778 as NACK at time 9126
Reenqueueing errored packet 203219 at time 9127
Additional hops: 5175
Adding flit 204003 as NACK at time 9132
Additional hops: 5184
Adding flit 203886 as NACK at time 9136
Reenqueueing errored packet 203778 at time 9141
[...]
Adding flit 1287700 as NACK at time 57523
Additional hops: 33160
Adding flit 1288234 as NACK at time 57533
Reenqueueing errored packet 1288234 at time 57548
Reenqueueing errored packet 1287700 at time 57548
Additional hops: 33170
Adding flit 1288778 as NACK at time 57568
Additional hops: 33177
Adding flit 1289031 as NACK at time 57568
Reenqueueing errored packet 1289031 at time 57583
Reenqueueing errored packet 1288778 at time 57589
Uncorrectable 3
Additional hops: 33182
Adding flit 1289681 as NACK at time 57596
Reenqueueing errored packet 1289681 at time 57607
Additional hops: 33189
Adding flit 1290386 as NACK at time 57631
Reenqueueing errored packet 1290386 at time 57646
Additional hops: 33197
Adding flit 1290653 as NACK at time 57648
Reenqueueing errored packet 1290653 at time 57665
Additional hops: 33201
Adding flit 1291319 as NACK at time 57665
Reenqueueing errored packet 1291319 at time 57674
Additional hops: 33207
Adding flit 1292028 as NACK at time 57710
Additional hops: 33215
Adding flit 1292130 as NACK at time 57715
Additional hops: 33226
Adding flit 1291815 as NACK at time 57717
Additional hops: 33233
Adding flit 1292383 as NACK at time 57721
Reenqueueing errored packet 1292028 at time 57723
Additional hops: 33239
Adding flit 1292553 as NACK at time 57725
Reenqueueing errored packet 1292130 at time 57732
Reenqueueing errored packet 1292383 at time 57736
Reenqueueing errored packet 1292553 at time 57738
Reenqueueing errored packet 1291815 at time 57740
Additional hops: 33251
Adding flit 1292410 as NACK at time 57740
Reenqueueing errored packet 1292410 at time 57765
Additional hops: 33258
Adding flit 1294634 as NACK at time 57824
Additional hops: 33266
Adding flit 1294811 as NACK at time 57834
Reenqueueing errored packet 1294634 at time 57839
Reenqueueing errored packet 1294811 at time 57851
Additional hops: 33272
Adding flit 1295351 as NACK at time 57853
Additional hops: 33281
Adding flit 1295186 as NACK at time 57855
Additional hops: 33291
Adding flit 1295166 as NACK at time 57856
Reenqueueing errored packet 1295351 at time 57866
Reenqueueing errored packet 1295186 at time 57874
Reenqueueing errored packet 1295166 at time 57877
Uncorrectable 3
Additional hops: 33299
Adding flit 1296401 as NACK at time 57908
Additional hops: 33310
Adding flit 1296552 as NACK at time 57922
Reenqueueing errored packet 1296401 at time 57925
Additional hops: 33321
Adding flit 1296562 as NACK at time 57931
Reenqueueing errored packet 1296552 at time 57945
Reenqueueing errored packet 1296562 at time 57954
Additional hops: 33332
Adding flit 1297285 as NACK at time 57959
Additional hops: 33345
Adding flit 1297162 as NACK at time 57965
Additional hops: 33352
Adding flit 1297890 as NACK at time 57970
Uncorrectable 3
Additional hops: 33362
Adding flit 1297864 as NACK at time 57978
Reenqueueing errored packet 1297285 at time 57982
Reenqueueing errored packet 1297890 at time 57985
Additional hops: 33364
Adding flit 1298688 as NACK at time 57990
Additional hops: 33373
Adding flit 1298188 as NACK at time 57991
Reenqueueing errored packet 1297162 at time 57992
Reenqueueing errored packet 1298688 at time 57995
Reenqueueing errored packet 1297864 at time 57999
Reenqueueing errored packet 1298188 at time 58010
Additional hops: 33381
Adding flit 1298932 as NACK at time 58021
Reenqueueing errored packet 1298932 at time 58038
Additional hops: 33390
Adding flit 1299290 as NACK at time 58040
Additional hops: 33397
Adding flit 1299451 as NACK at time 58041
Additional hops: 33404
Adding flit 1299464 as NACK at time 58044
Reenqueueing errored packet 1299451 at time 58056
Reenqueueing errored packet 1299464 at time 58059
Reenqueueing errored packet 1299290 at time 58059
Additional hops: 33412
Adding flit 1300203 as NACK at time 58084
Additional hops: 33420
Adding flit 1300442 as NACK at time 58091
Additional hops: 33427
Adding flit 1300639 as NACK at time 58098
Reenqueueing errored packet 1300203 at time 58101
Reenqueueing errored packet 1300442 at time 58108
Additional hops: 33435
Adding flit 1300887 as NACK at time 58109
Additional hops: 33444
Adding flit 1300902 as NACK at time 58111
Reenqueueing errored packet 1300639 at time 58113
Additional hops: 33450
Adding flit 1301262 as NACK at time 58116
Reenqueueing errored packet 1300887 at time 58126
Reenqueueing errored packet 1301262 at time 58129
Reenqueueing errored packet 1300902 at time 58130
Additional hops: 33462
Adding flit 1301221 as NACK at time 58140
Additional hops: 33469
Adding flit 1301836 as NACK at time 58147
Additional hops: 33478
Adding flit 1302032 as NACK at time 58160
Reenqueueing errored packet 1301836 at time 58162
Additional hops: 33480
Adding flit 1302633 as NACK at time 58163
Reenqueueing errored packet 1301221 at time 58165
Reenqueueing errored packet 1302633 at time 58168
Reenqueueing errored packet 1302032 at time 58179
Additional hops: 33491
Adding flit 1302085 as NACK at time 58179
Reenqueueing errored packet 1302085 at time 58202
Additional hops: 33498
Adding flit 1303180 as NACK at time 58202
Additional hops: 33512
Adding flit 1302671 as NACK at time 58206
Reenqueueing errored packet 1303180 at time 58217
Additional hops: 33520
Adding flit 1303439 as NACK at time 58222
Additional hops: 33528
Adding flit 1303590 as NACK at time 58225
Additional hops: 33538
Adding flit 1303488 as NACK at time 58231
Reenqueueing errored packet 1302671 at time 58235
Additional hops: 33546
Adding flit 1303818 as NACK at time 58236
Reenqueueing errored packet 1303439 at time 58239
Reenqueueing errored packet 1303590 at time 58242
Reenqueueing errored packet 1303488 at time 58252
Reenqueueing errored packet 1303818 at time 58253
Additional hops: 33557
Adding flit 1304057 as NACK at time 58253
Reenqueueing errored packet 1304057 at time 58276
Additional hops: 33568
Adding flit 1304759 as NACK at time 58288
Reenqueueing errored packet 1304759 at time 58311
Additional hops: 33578
Adding flit 1305991 as NACK at time 58337
Reenqueueing errored packet 1305991 at time 58358
Additional hops: 33587
Adding flit 1306971 as NACK at time 58376
Additional hops: 33594
Adding flit 1307165 as NACK at time 58380
Additional hops: 33607
Adding flit 1306794 as NACK at time 58381
Additional hops: 33616
Adding flit 1307147 as NACK at time 58385
Additional hops: 33618
Adding flit 1307660 as NACK at time 58386
Additional hops: 33629
Adding flit 1306866 as NACK at time 58388
Reenqueueing errored packet 1307660 at time 58391
Additional hops: 33640
Adding flit 1307125 as NACK at time 58392
Reenqueueing errored packet 1307165 at time 58395
Reenqueueing errored packet 1306971 at time 58395
Reenqueueing errored packet 1307147 at time 58404
Reenqueueing errored packet 1306794 at time 58408
Reenqueueing errored packet 1306866 at time 58411
Additional hops: 33646
Adding flit 1308051 as NACK at time 58412
Additional hops: 33657
Adding flit 1307661 as NACK at time 58414
Reenqueueing errored packet 1307125 at time 58415
Reenqueueing errored packet 1308051 at time 58425
Reenqueueing errored packet 1307661 at time 58437
Additional hops: 33669
Adding flit 1308299 as NACK at time 58447
Additional hops: 33678
Adding flit 1308678 as NACK at time 58449
Reenqueueing errored packet 1308678 at time 58468
Reenqueueing errored packet 1308299 at time 58472
Additional hops: 33687
Adding flit 1309274 as NACK at time 58480
Additional hops: 33696
Adding flit 1309301 as NACK at time 58486
Additional hops: 33699
Adding flit 1309981 as NACK at time 58488
Additional hops: 33707
Adding flit 1309612 as NACK at time 58489
Reenqueueing errored packet 1309981 at time 58495
Reenqueueing errored packet 1309274 at time 58499
Reenqueueing errored packet 1309301 at time 58505
Reenqueueing errored packet 1309612 at time 58506
Additional hops: 33718
Adding flit 1310251 as NACK at time 58529
Additional hops: 33727
Adding flit 1310899 as NACK at time 58547
Reenqueueing errored packet 1310251 at time 58552
Additional hops: 33734
Adding flit 1311332 as NACK at time 58561
Reenqueueing errored packet 1310899 at time 58566
Additional hops: 33743
Adding flit 1311408 as NACK at time 58574
Reenqueueing errored packet 1311332 at time 58576
Reenqueueing errored packet 1311408 at time 58593
Additional hops: 33750
Adding flit 1312138 as NACK at time 58597
Reenqueueing errored packet 1312138 at time 58612
Additional hops: 33762
Adding flit 1312079 as NACK at time 58612
Additional hops: 33773
Adding flit 1312444 as NACK at time 58624
Reenqueueing errored packet 1312079 at time 58637
Reenqueueing errored packet 1312444 at time 58647
Additional hops: 33779
Adding flit 1313898 as NACK at time 58673
Reenqueueing errored packet 1313898 at time 58686
Additional hops: 33784
Adding flit 1314308 as NACK at time 58690
Additional hops: 33791
Adding flit 1314183 as NACK at time 58691
Reenqueueing errored packet 1314308 at time 58701
Reenqueueing errored packet 1314183 at time 58706
Additional hops: 33799
Adding flit 1314394 as NACK at time 58710
Additional hops: 33804
Adding flit 1314949 as NACK at time 58719
Reenqueueing errored packet 1314394 at time 58727
Reenqueueing errored packet 1314949 at time 58730
Additional hops: 33814
Adding flit 1316157 as NACK at time 58788
Additional hops: 33822
Adding flit 1316323 as NACK at time 58788
Reenqueueing errored packet 1316323 at time 58805
Reenqueueing errored packet 1316157 at time 58809
Additional hops: 33833
Adding flit 1317188 as NACK at time 58834
Additional hops: 33840
Adding flit 1317630 as NACK at time 58841
Additional hops: 33849
Adding flit 1317785 as NACK at time 58855
Reenqueueing errored packet 1317630 at time 58856
Reenqueueing errored packet 1317188 at time 58857
Additional hops: 33858
Adding flit 1317899 as NACK at time 58860
Additional hops: 33864
Adding flit 1318273 as NACK at time 58868
Reenqueueing errored packet 1317785 at time 58874
Reenqueueing errored packet 1317899 at time 58879
Reenqueueing errored packet 1318273 at time 58881
Additional hops: 33868
Adding flit 1319010 as NACK at time 58892
Additional hops: 33875
Adding flit 1318868 as NACK at time 58896
Reenqueueing errored packet 1319010 at time 58901
Reenqueueing errored packet 1318868 at time 58911
Uncorrectable 3
Additional hops: 33886
Adding flit 1318803 as NACK at time 58916
Additional hops: 33893
Adding flit 1319300 as NACK at time 58918
Additional hops: 33900
Adding flit 1319610 as NACK at time 58931
Reenqueueing errored packet 1319300 at time 58933
Reenqueueing errored packet 1318803 at time 58939
Reenqueueing errored packet 1319610 at time 58946
Additional hops: 33906
Adding flit 1320344 as NACK at time 58964
Additional hops: 33914
Adding flit 1320265 as NACK at time 58964
Additional hops: 33921
Adding flit 1320254 as NACK at time 58964
Additional hops: 33929
Adding flit 1320552 as NACK at time 58974
Additional hops: 33937
Adding flit 1320521 as NACK at time 58975
Additional hops: 33946
Adding flit 1320366 as NACK at time 58976
Reenqueueing errored packet 1320344 at time 58977
Reenqueueing errored packet 1320254 at time 58979
Reenqueueing errored packet 1320265 at time 58981
Reenqueueing errored packet 1320552 at time 58991
Reenqueueing errored packet 1320521 at time 58992
Reenqueueing errored packet 1320366 at time 58995
Additional hops: 33955
Adding flit 1321717 as NACK at time 59034
Additional hops: 33963
Adding flit 1322143 as NACK at time 59047
Reenqueueing errored packet 1321717 at time 59053
Reenqueueing errored packet 1322143 at time 59064
Additional hops: 33972
Adding flit 1322414 as NACK at time 59067
Additional hops: 33978
Adding flit 1322889 as NACK at time 59078
Reenqueueing errored packet 1322414 at time 59086
Additional hops: 33986
Adding flit 1322862 as NACK at time 59089
Reenqueueing errored packet 1322889 at time 59091
Reenqueueing errored packet 1322862 at time 59106
Additional hops: 33991
Adding flit 1323801 as NACK at time 59112
Additional hops: 34000
Adding flit 1323455 as NACK at time 59114
Additional hops: 34012
Adding flit 1323561 as NACK at time 59121
Reenqueueing errored packet 1323801 at time 59123
Reenqueueing errored packet 1323455 at time 59133
Reenqueueing errored packet 1323561 at time 59146
Additional hops: 34024
Adding flit 1325006 as NACK at time 59193
Additional hops: 34030
Adding flit 1325963 as NACK at time 59212
Additional hops: 34036
Adding flit 1326044 as NACK at time 59216
Reenqueueing errored packet 1325006 at time 59218
Additional hops: 34044
Adding flit 1326009 as NACK at time 59218
Reenqueueing errored packet 1325963 at time 59225
Reenqueueing errored packet 1326044 at time 59229
Reenqueueing errored packet 1326009 at time 59235
Additional hops: 34053
Adding flit 1327281 as NACK at time 59280
Additional hops: 34060
Adding flit 1327626 as NACK at time 59284
Additional hops: 34069
Adding flit 1327454 as NACK at time 59292
Additional hops: 34079
Adding flit 1327395 as NACK at time 59294
Additional hops: 34082
Adding flit 1328167 as NACK at time 59297
Reenqueueing errored packet 1327626 at time 59299
Reenqueueing errored packet 1327281 at time 59299
Reenqueueing errored packet 1328167 at time 59304
Additional hops: 34088
Adding flit 1328191 as NACK at time 59307
Reenqueueing errored packet 1327454 at time 59311
Additional hops: 34101
Adding flit 1327742 as NACK at time 59311
Additional hops: 34114
Adding flit 1327841 as NACK at time 59314
Reenqueueing errored packet 1327395 at time 59315
Reenqueueing errored packet 1328191 at time 59320
Additional hops: 34117
Adding flit 1328701 as NACK at time 59322
Reenqueueing errored packet 1328701 at time 59329
Reenqueueing errored packet 1327742 at time 59338
Reenqueueing errored packet 1327841 at time 59341
Additional hops: 34124
Adding flit 1328964 as NACK at time 59344
Reenqueueing errored packet 1328964 at time 59359
Additional hops: 34132
Adding flit 1329410 as NACK at time 59367
Additional hops: 34137
Adding flit 1329821 as NACK at time 59377
Reenqueueing errored packet 1329410 at time 59384
Reenqueueing errored packet 1329821 at time 59388
Additional hops: 34141
Adding flit 1330753 as NACK at time 59416
Additional hops: 34147
Adding flit 1330722 as NACK at time 59422
Reenqueueing errored packet 1330753 at time 59425
Reenqueueing errored packet 1330722 at time 59435
Additional hops: 34157
Adding flit 1330858 as NACK at time 59440
Uncorrectable 3
Additional hops: 34170
Adding flit 1330987 as NACK at time 59455
Additional hops: 34181
Adding flit 1331165 as NACK at time 59460
Reenqueueing errored packet 1330858 at time 59461
Additional hops: 34189
Adding flit 1331583 as NACK at time 59463
Additional hops: 34196
Adding flit 1331737 as NACK at time 59468
Reenqueueing errored packet 1331583 at time 59480
Reenqueueing errored packet 1330987 at time 59482
Reenqueueing errored packet 1331737 at time 59483
Reenqueueing errored packet 1331165 at time 59483
Uncorrectable 3
Additional hops: 34205
Adding flit 1332696 as NACK at time 59521
Additional hops: 34214
Adding flit 1333161 as NACK at time 59537
Reenqueueing errored packet 1332696 at time 59540
Reenqueueing errored packet 1333161 at time 59556
Additional hops: 34218
Adding flit 1334773 as NACK at time 59594
Reenqueueing errored packet 1334773 at time 59603
Additional hops: 34230
Adding flit 1334414 as NACK at time 59606
Additional hops: 34235
Adding flit 1335255 as NACK at time 59617
Reenqueueing errored packet 1335255 at time 59628
Additional hops: 34246
Adding flit 1335176 as NACK at time 59630
Reenqueueing errored packet 1334414 at time 59631
Additional hops: 34253
Adding flit 1335559 as NACK at time 59639
Reenqueueing errored packet 1335176 at time 59653
Reenqueueing errored packet 1335559 at time 59654
Additional hops: 34258
Adding flit 1336413 as NACK at time 59668
Reenqueueing errored packet 1336413 at time 59679
Additional hops: 34266
Adding flit 1336448 as NACK at time 59683
Reenqueueing errored packet 1336448 at time 59700
Additional hops: 34275
Adding flit 1337318 as NACK at time 59724
Additional hops: 34285
Adding flit 1337362 as NACK at time 59728
Reenqueueing errored packet 1337318 at time 59743
Reenqueueing errored packet 1337362 at time 59749
Additional hops: 34294
Adding flit 1338114 as NACK at time 59762
Additional hops: 34304
Adding flit 1338522 as NACK at time 59777
Reenqueueing errored packet 1338114 at time 59781
Additional hops: 34310
Adding flit 1339289 as NACK at time 59797
Reenqueueing errored packet 1338522 at time 59798
Reenqueueing errored packet 1339289 at time 59810
Additional hops: 34318
Adding flit 1340304 as NACK at time 59853
Additional hops: 34328
Adding flit 1340210 as NACK at time 59858
Reenqueueing errored packet 1340304 at time 59870
Additional hops: 34335
Adding flit 1340914 as NACK at time 59873
Reenqueueing errored packet 1340210 at time 59879
Reenqueueing errored packet 1340914 at time 59888
Additional hops: 34342
Adding flit 1341351 as NACK at time 59895
Additional hops: 34350
Adding flit 1341367 as NACK at time 59898
Reenqueueing errored packet 1341351 at time 59910
Reenqueueing errored packet 1341367 at time 59915
Additional hops: 34357
Adding flit 1341906 as NACK at time 59920
Reenqueueing errored packet 1341906 at time 59935
Additional hops: 34367
Adding flit 1342085 as NACK at time 59937
Additional hops: 34374
Adding flit 1342375 as NACK at time 59941
Additional hops: 34386
Adding flit 1342084 as NACK at time 59946
Additional hops: 34392
Adding flit 1342556 as NACK at time 59948
Reenqueueing errored packet 1342375 at time 59956
Reenqueueing errored packet 1342085 at time 59958
Reenqueueing errored packet 1342556 at time 59961
Reenqueueing errored packet 1342084 at time 59971
Class 0:
Packet latency average = 22.9669
	minimum = 5
	maximum = 195
Network latency average = 22.8199
	minimum = 5
	maximum = 65
Slowest packet = 672583
Flit latency average = 22.8224
	minimum = 5
	maximum = 65
Slowest flit = 915528
Fragmentation average = 0
	minimum = 0
	maximum = 0
Injected packet rate average = 0.351418
	minimum = 0.3447 (at node 37)
	maximum = 0.358033 (at node 33)
Accepted packet rate average = 0.351403
	minimum = 0.3433 (at node 14)
	maximum = 0.359567 (at node 31)
Injected flit rate average = 0.351418
	minimum = 0.3447 (at node 37)
	maximum = 0.358033 (at node 33)
Accepted flit rate average= 0.351403
	minimum = 0.3433 (at node 14)
	maximum = 0.359567 (at node 31)
Injected packet length average = 1
Accepted packet length average = 1
Total in-flight flits = 534 (532 measured)
latency change    = 0.000885079
throughput change = 0.000228252
Draining all recorded packets ...
Draining remaining packets ...
Class 0:
Remaining flits: 207075 668496 (2 flits)
Measured flits: (0 flits)
WARNING: Possible network deadlock.
Class 0:
Remaining flits: 207075 668496 (2 flits)
Measured flits: (0 flits)
WARNING: Possible network deadlock.
Class 0:
Remaining flits: 207075 668496 (2 flits)
Measured flits: (0 flits)
WARNING: Possible network deadlock.
Class 0:
Remaining flits: 207075 668496 (2 flits)
Measured flits: (0 flits)
Time taken is 61040 cycles
====== Overall Traffic Statistics ======
====== Traffic class 0 ======
Packet latency average = 22.9702 (1 samples)
	minimum = 5 (1 samples)
	maximum = 195 (1 samples)
Network latency average = 22.8232 (1 samples)
	minimum = 5 (1 samples)
	maximum = 65 (1 samples)
Flit latency average = 22.8266 (1 samples)
	minimum = 5 (1 samples)
	maximum = 65 (1 samples)
Fragmentation average = 0 (1 samples)
	minimum = 0 (1 samples)
	maximum = 0 (1 samples)
Injected packet rate average = 0.351418 (1 samples)
	minimum = 0.3447 (1 samples)
	maximum = 0.358033 (1 samples)
Accepted packet rate average = 0.351403 (1 samples)
	minimum = 0.3433 (1 samples)
	maximum = 0.359567 (1 samples)
Injected flit rate average = 0.351418 (1 samples)
	minimum = 0.3447 (1 samples)
	maximum = 0.358033 (1 samples)
Accepted flit rate average = 0.351403 (1 samples)
	minimum = 0.3433 (1 samples)
	maximum = 0.359567 (1 samples)
Injected packet size average = 1 (1 samples)
Accepted packet size average = 1 (1 samples)
Hops average = 6.27164 (1 samples)
Total run time 164.227
