BEGIN Configuration File: examples/ecc_mesh88_config_0_1.000_packet_5
// $Id$

// Copyright (c) 2007-2015, Trustees of The Leland Stanford Junior University
// All rights reserved.
//
// Redistribution and use in source and binary forms, with or without
// modification, are permitted provided that the following conditions are met:
//
// Redistributions of source code must retain the above copyright notice, this
// list of conditions and the following disclaimer.
// Redistributions in binary form must reproduce the above copyright notice,
// this list of conditions and the following disclaimer in the documentation
// and/or other materials provided with the distribution.
//
// THIS SOFTWARE IS PROVIDED BY THE COPYRIGHT HOLDERS AND CONTRIBUTORS "AS IS"
// AND ANY EXPRESS OR IMPLIED WARRANTIES, INCLUDING, BUT NOT LIMITED TO, THE
// IMPLIED WARRANTIES OF MERCHANTABILITY AND FITNESS FOR A PARTICULAR PURPOSE
// ARE DISCLAIMED. IN NO EVENT SHALL THE COPYRIGHT OWNER OR CONTRIBUTORS BE
// LIABLE FOR ANY DIRECT, INDIRECT, INCIDENTAL, SPECIAL, EXEMPLARY, OR
// CONSEQUENTIAL DAMAGES (INCLUDING, BUT NOT LIMITED TO, PROCUREMENT OF
// SUBSTITUTE GOODS OR SERVICES; LOSS OF USE, DATA, OR PROFITS; OR BUSINESS
// INTERRUPTION) HOWEVER CAUSED AND ON ANY THEORY OF LIABILITY, WHETHER IN
// CONTRACT, STRICT LIABILITY, OR TORT (INCLUDING NEGLIGENCE OR OTHERWISE)
// ARISING IN ANY WAY OUT OF THE USE OF THIS SOFTWARE, EVEN IF ADVISED OF THE
// POSSIBILITY OF SUCH DAMAGE.

// Dragonfly
//




vc_buf_size = 256;


wait_for_tail_credit = 0;

//
// Router architecture
//
vc_allocator = separable_input_first; 
sw_allocator = separable_input_first;
alloc_iters  = 1;

credit_delay   = 2;
routing_delay  = 0;
vc_alloc_delay = 1;
sw_alloc_delay = 1;
st_final_delay = 1;

input_speedup     = 1;
output_speedup    = 1;
internal_speedup  = 2.0;


warmup_periods = 3;
sim_count          = 1;

sample_period  = 10000;  


routing_function = dor;
num_vcs     = 2;

priority = none;
traffic       = uniform; 

injection_rate = 1.0;
packet_size = 1;
injection_rate_uses_flits=1;

topology = mesh;

k  = 8;
n  = 2;

fer = 5;
ecc = link;
correctable = 0;

watch_out=-;
watch_file = watch.txt;

ecc = packet;

stats_out = examples/ecc_mesh88_config_0_1.000_packet_5.m;

END Configuration File: examples/ecc_mesh88_config_0_1.000_packet_5
Additional hops: 9
Adding flit 5377 as NACK at time 362
Reenqueueing errored packet 5377 at time 381
Additional hops: 19
Adding flit 12135 as NACK at time 762
Reenqueueing errored packet 12135 at time 783
Additional hops: 26
Adding flit 62777 as NACK at time 1797
Reenqueueing errored packet 62777 at time 1812
Additional hops: 30
Adding flit 53693 as NACK at time 2002
Reenqueueing errored packet 53693 at time 2011
Additional hops: 39
Adding flit 64757 as NACK at time 3266
Additional hops: 53
Adding flit 53118 as NACK at time 3394
3584 | node57 | Enqueuing flit 192022 (packet 192022) at time 2366.
3584 | traffic_manager | Finding output VC for flit 192022:
3584 | traffic_manager |   Output VC 1 is full.
3584 | traffic_manager |   Output VC 0 is full.
3584 | traffic_manager | No output VC found for flit 192022.
3585 | traffic_manager | Finding output VC for flit 192022:
3585 | traffic_manager |   Output VC 1 is full.
3585 | traffic_manager |   Output VC 0 is full.
3585 | traffic_manager | No output VC found for flit 192022.
3586 | traffic_manager | Finding output VC for flit 192022:
3586 | traffic_manager |   Selected output VC 1.
3586 | network_0/router_7_1 | Adding VC range [0,1] at output port 0 for flit 192022 (input port 4, destination 44).
3586 | node57 | Generating lookahead routing info for flit 192022.
3586 | node57 | Injecting flit 192022 into subnet 0 at time 3586 with priority 0.
3587 | network_0/network_0_fchan_ingress57 | Beginning channel traversal for flit 192022 with delay 1.
3587 | network_0/network_0_fchan_ingress57 | Completed channel traversal for flit 192022.
3588 | network_0/router_7_1 | Received flit 192022 from channel at input 4.
3588 | network_0/router_7_1 | Adding flit 192022 to VC 1 at input 4 (state: vc_alloc, front: 119379).
Additional hops: 63
Adding flit 99483 as NACK at time 3778
Additional hops: 67
Adding flit 164563 as NACK at time 3788
Reenqueueing errored packet 99483 at time 3799
Additional hops: 72
Adding flit 111918 as NACK at time 4172
Additional hops: 83
Adding flit 119022 as NACK at time 4216
Reenqueueing errored packet 119022 at time 4239
Additional hops: 86
Adding flit 194211 as NACK at time 4393
Reenqueueing errored packet 194211 at time 4400
Additional hops: 90
Adding flit 112838 as NACK at time 4437
Additional hops: 95
Adding flit 203830 as NACK at time 4666
Reenqueueing errored packet 203830 at time 4677
Additional hops: 100
Adding flit 149186 as NACK at time 5043
Reenqueueing errored packet 149186 at time 5054
5383 | network_0/router_7_1 | Using precomputed lookahead routing information for VC 1 at input 4 (front: 192022).
5383 | network_0/router_7_1/buf_4/vc_1 | Changing state from active to vc_alloc.
5383 | network_0/router_7_1 | Beginning VC allocation for VC 1 at input 4 (front: 192022).
5383 | network_0/router_7_1 |   Requesting VC 0 at output 0 (in_pri: 0, out_pri: 0).
5383 | network_0/router_7_1 |   VC 1 at output 0 is in use by VC 1 at input 1 (front flit: 151042).
5383 | network_0/router_7_1/vc_allocator | Input requests = [ 2 -> [ 0@0 ]  8 -> [ 0@0 ]  9 -> [ 0@0 ]  ], output requests = [ 0 -> [ 2@0 8@0 9@0 ]  ].
5383 | network_0/router_7_1/vc_allocator | Input grants = [ 2 -> 0  ], output grants = [ 0 -> 2  ].
5383 | network_0/router_7_1 | VC allocation failed for VC 1 at input 4.
5383 | network_0/router_7_1 | Completed VC allocation for VC 1 at input 4 (front: 192022).
5383 | network_0/router_7_1 |   No output VC allocated.
5384 | network_0/router_7_1 | Beginning VC allocation for VC 1 at input 4 (front: 192022).
5384 | network_0/router_7_1 |   VC 0 at output 0 is in use by VC 0 at input 1 (front flit: 152605).
5384 | network_0/router_7_1 |   VC 1 at output 0 is in use by VC 1 at input 1 (front flit: 151042).
5384 | network_0/router_7_1 | Completed VC allocation for VC 1 at input 4 (front: 192022).
5384 | network_0/router_7_1 |   No output VC allocated.
5384 | network_0/router_7_1 | Beginning VC allocation for VC 1 at input 4 (front: 192022).
5384 | network_0/router_7_1 |   VC 0 at output 0 is in use by VC 0 at input 1 (front flit: 152605).
5384 | network_0/router_7_1 |   VC 1 at output 0 is in use by VC 1 at input 1 (front flit: 151042).
5384 | network_0/router_7_1 | Completed VC allocation for VC 1 at input 4 (front: 192022).
5384 | network_0/router_7_1 |   No output VC allocated.
5385 | network_0/router_7_1 | Beginning VC allocation for VC 1 at input 4 (front: 192022).
5385 | network_0/router_7_1 |   VC 0 at output 0 is in use by VC 0 at input 1 (front flit: 152605).
5385 | network_0/router_7_1 |   VC 1 at output 0 is in use by VC 1 at input 1 (front flit: 151042).
5385 | network_0/router_7_1 | Completed VC allocation for VC 1 at input 4 (front: 192022).
5385 | network_0/router_7_1 |   No output VC allocated.
5385 | network_0/router_7_1 | Beginning VC allocation for VC 1 at input 4 (front: 192022).
5385 | network_0/router_7_1 |   VC 0 at output 0 is in use by VC 0 at input 1 (front flit: 152605).
5385 | network_0/router_7_1 |   VC 1 at output 0 is in use by VC 1 at input 1 (front flit: 151042).
5385 | network_0/router_7_1 | Completed VC allocation for VC 1 at input 4 (front: 192022).
5385 | network_0/router_7_1 |   No output VC allocated.
5386 | network_0/router_7_1 | Beginning VC allocation for VC 1 at input 4 (front: 192022).
5386 | network_0/router_7_1 |   VC 0 at output 0 is in use by VC 0 at input 1 (front flit: 152605).
5386 | network_0/router_7_1 |   VC 1 at output 0 is in use by VC 1 at input 1 (front flit: 151042).
5386 | network_0/router_7_1 | Completed VC allocation for VC 1 at input 4 (front: 192022).
5386 | network_0/router_7_1 |   No output VC allocated.
5386 | network_0/router_7_1 | Beginning VC allocation for VC 1 at input 4 (front: 192022).
5386 | network_0/router_7_1 |   VC 0 at output 0 is in use by VC 0 at input 1 (front flit: 152605).
5386 | network_0/router_7_1 |   VC 1 at output 0 is in use by VC 1 at input 1 (front flit: 151042).
5386 | network_0/router_7_1 | Completed VC allocation for VC 1 at input 4 (front: 192022).
5386 | network_0/router_7_1 |   No output VC allocated.
5387 | network_0/router_7_1 | Beginning VC allocation for VC 1 at input 4 (front: 192022).
5387 | network_0/router_7_1 |   VC 0 at output 0 is in use by VC 0 at input 1 (front flit: 152605).
5387 | network_0/router_7_1 |   VC 1 at output 0 is in use by VC 1 at input 1 (front flit: 151042).
5387 | network_0/router_7_1 | Completed VC allocation for VC 1 at input 4 (front: 192022).
5387 | network_0/router_7_1 |   No output VC allocated.
5387 | network_0/router_7_1 | Beginning VC allocation for VC 1 at input 4 (front: 192022).
5387 | network_0/router_7_1 |   VC 0 at output 0 is in use by VC 0 at input 1 (front flit: 152605).
5387 | network_0/router_7_1 |   VC 1 at output 0 is in use by VC 1 at input 1 (front flit: 151042).
5387 | network_0/router_7_1 | Completed VC allocation for VC 1 at input 4 (front: 192022).
5387 | network_0/router_7_1 |   No output VC allocated.
5388 | network_0/router_7_1 | Beginning VC allocation for VC 1 at input 4 (front: 192022).
5388 | network_0/router_7_1 |   VC 0 at output 0 is in use by VC 0 at input 1 (front flit: 152605).
5388 | network_0/router_7_1 |   VC 1 at output 0 is in use by VC 1 at input 1 (front flit: 151042).
5388 | network_0/router_7_1 | Completed VC allocation for VC 1 at input 4 (front: 192022).
5388 | network_0/router_7_1 |   No output VC allocated.
5388 | network_0/router_7_1 | Beginning VC allocation for VC 1 at input 4 (front: 192022).
5388 | network_0/router_7_1 |   VC 0 at output 0 is in use by VC 0 at input 1 (front flit: 152605).
5388 | network_0/router_7_1 |   Requesting VC 1 at output 0 (in_pri: 0, out_pri: 0).
5388 | network_0/router_7_1/vc_allocator | Input requests = [ 3 -> [ 1@0 ]  8 -> [ 1@0 ]  9 -> [ 1@0 ]  ], output requests = [ 1 -> [ 3@0 8@0 9@0 ]  ].
5388 | network_0/router_7_1/vc_allocator | Input grants = [ 8 -> 1  ], output grants = [ 1 -> 8  ].
5388 | network_0/router_7_1 | VC allocation failed for VC 1 at input 4.
5388 | network_0/router_7_1 | Completed VC allocation for VC 1 at input 4 (front: 192022).
5388 | network_0/router_7_1 |   No output VC allocated.
5389 | network_0/router_7_1 | Beginning VC allocation for VC 1 at input 4 (front: 192022).
5389 | network_0/router_7_1 |   VC 0 at output 0 is in use by VC 0 at input 1 (front flit: 152605).
5389 | network_0/router_7_1 |   VC 1 at output 0 is in use by VC 0 at input 4 (front flit: 194327).
5389 | network_0/router_7_1 | Completed VC allocation for VC 1 at input 4 (front: 192022).
5389 | network_0/router_7_1 |   No output VC allocated.
5389 | network_0/router_7_1 | Beginning VC allocation for VC 1 at input 4 (front: 192022).
5389 | network_0/router_7_1 |   VC 0 at output 0 is in use by VC 0 at input 1 (front flit: 152605).
5389 | network_0/router_7_1 |   Requesting VC 1 at output 0 (in_pri: 0, out_pri: 0).
5389 | network_0/router_7_1/vc_allocator | Input requests = [ 3 -> [ 1@0 ]  8 -> [ 6@0 7@0 ]  9 -> [ 1@0 ]  ], output requests = [ 1 -> [ 3@0 9@0 ]  6 -> [ 8@0 ]  7 -> [ 8@0 ]  ].
5389 | network_0/router_7_1/vc_allocator | Input grants = [ 8 -> 6  9 -> 1  ], output grants = [ 1 -> 9  6 -> 8  ].
5389 | network_0/router_7_1 | Assigning VC 1 at output 0 to VC 1 at input 4.
5389 | network_0/router_7_1 | Completed VC allocation for VC 1 at input 4 (front: 192022).
5389 | network_0/router_7_1 |   Acquiring assigned VC 1 at output 0.
5389 | network_0/router_7_1/buf_4/vc_1 | Changing state from vc_alloc to active.
5390 | network_0/router_7_1 | Beginning switch allocation for VC 1 at input 4 (front: 192022).
5390 | network_0/router_7_1 |   VC 1 at output 0 is full.
5390 | network_0/router_7_1 | Completed switch allocation for VC 1 at input 4 (front: 192022).
5390 | network_0/router_7_1 |   No output port allocated.
5390 | network_0/router_7_1 | Beginning switch allocation for VC 1 at input 4 (front: 192022).
5390 | network_0/router_7_1 |   VC 1 at output 0 is full.
5390 | network_0/router_7_1 | Completed switch allocation for VC 1 at input 4 (front: 192022).
5390 | network_0/router_7_1 |   No output port allocated.
5391 | network_0/router_7_1 | Beginning switch allocation for VC 1 at input 4 (front: 192022).
5391 | network_0/router_7_1 |   VC 1 at output 0 is full.
5391 | network_0/router_7_1 | Completed switch allocation for VC 1 at input 4 (front: 192022).
5391 | network_0/router_7_1 |   No output port allocated.
5391 | network_0/router_7_1 | Beginning switch allocation for VC 1 at input 4 (front: 192022).
5391 | network_0/router_7_1 |   VC 1 at output 0 is full.
5391 | network_0/router_7_1 | Completed switch allocation for VC 1 at input 4 (front: 192022).
5391 | network_0/router_7_1 |   No output port allocated.
5392 | network_0/router_7_1 | Beginning switch allocation for VC 1 at input 4 (front: 192022).
5392 | network_0/router_7_1 |   VC 1 at output 0 is full.
5392 | network_0/router_7_1 | Completed switch allocation for VC 1 at input 4 (front: 192022).
5392 | network_0/router_7_1 |   No output port allocated.
5392 | network_0/router_7_1 | Beginning switch allocation for VC 1 at input 4 (front: 192022).
5392 | network_0/router_7_1 |   VC 1 at output 0 is full.
5392 | network_0/router_7_1 | Completed switch allocation for VC 1 at input 4 (front: 192022).
5392 | network_0/router_7_1 |   No output port allocated.
5393 | network_0/router_7_1 | Beginning switch allocation for VC 1 at input 4 (front: 192022).
5393 | network_0/router_7_1 |   VC 1 at output 0 is full.
5393 | network_0/router_7_1 | Completed switch allocation for VC 1 at input 4 (front: 192022).
5393 | network_0/router_7_1 |   No output port allocated.
5393 | network_0/router_7_1 | Beginning switch allocation for VC 1 at input 4 (front: 192022).
5393 | network_0/router_7_1 |   VC 1 at output 0 is full.
5393 | network_0/router_7_1 | Completed switch allocation for VC 1 at input 4 (front: 192022).
5393 | network_0/router_7_1 |   No output port allocated.
5394 | network_0/router_7_1 | Beginning switch allocation for VC 1 at input 4 (front: 192022).
5394 | network_0/router_7_1 |   Requesting output 0.0 (non-spec, pri: 0).
5394 | network_0/router_7_1/sw_allocator | Input requests = [ 4 -> [ 0@0 ]  ], output requests = [ 0 -> [ 4@0 ]  ].
5394 | network_0/router_7_1/sw_allocator | Input grants = [ 4 -> 0  ], output grants = [ 0 -> 4  ].
5394 | network_0/router_7_1 | Assigning output 0.0 to VC 1 at input 4.0.
5394 | network_0/router_7_1 | Completed switch allocation for VC 1 at input 4 (front: 192022).
5394 | network_0/router_7_1 |   Scheduling switch connection from input 4.0 to output 0.0.
5394 | network_0/router_7_1 | Updating lookahead routing information for flit 192022.
5394 | network_0/router_7_2 | Adding VC range [0,1] at output port 0 for flit 192022 (input port 1, destination 44).
5394 | network_0/router_7_1 | Beginning crossbar traversal for flit 192022 from input 4.0 to output 0.0.
5394 | network_0/router_7_1 | Completed crossbar traversal for flit 192022 from input 4.0 to output 0.0.
5394 | network_0/router_7_1 | Buffering flit 192022 at output 0.
5394 | network_0/router_7_1 | Sending flit 192022 to channel at output 0.
5395 | network_0/network_0_fchan_228 | Beginning channel traversal for flit 192022 with delay 1.
5395 | network_0/network_0_fchan_228 | Completed channel traversal for flit 192022.
5396 | network_0/router_7_2 | Received flit 192022 from channel at input 1.
5396 | network_0/router_7_2 | Adding flit 192022 to VC 1 at input 1 (state: vc_alloc, front: 153402).
Additional hops: 106
Adding flit 102892 as NACK at time 5589
Additional hops: 115
Adding flit 153302 as NACK at time 5599
Reenqueueing errored packet 153302 at time 5618
Additional hops: 125
Adding flit 214605 as NACK at time 6053
Reenqueueing errored packet 214605 at time 6074
Additional hops: 132
Adding flit 182283 as NACK at time 6093
Additional hops: 141
Adding flit 182199 as NACK at time 6208
Additional hops: 146
Adding flit 262852 as NACK at time 6387
Reenqueueing errored packet 262852 at time 6398
6464 | network_0/router_7_2 | Using precomputed lookahead routing information for VC 1 at input 1 (front: 192022).
6464 | network_0/router_7_2/buf_1/vc_1 | Changing state from active to vc_alloc.
6464 | network_0/router_7_2 | Beginning VC allocation for VC 1 at input 1 (front: 192022).
6464 | network_0/router_7_2 |   VC 0 at output 0 is in use by VC 1 at input 4 (front flit: 260727).
6464 | network_0/router_7_2 |   Requesting VC 1 at output 0 (in_pri: 0, out_pri: 0).
6464 | network_0/router_7_2/vc_allocator | Input requests = [ 2 -> [ 1@0 ]  3 -> [ 1@0 ]  8 -> [ 2@0 3@0 ]  ], output requests = [ 1 -> [ 2@0 3@0 ]  2 -> [ 8@0 ]  3 -> [ 8@0 ]  ].
6464 | network_0/router_7_2/vc_allocator | Input grants = [ 2 -> 1  8 -> 2  ], output grants = [ 1 -> 2  2 -> 8  ].
6464 | network_0/router_7_2 | VC allocation failed for VC 1 at input 1.
6464 | network_0/router_7_2 | Completed VC allocation for VC 1 at input 1 (front: 192022).
6464 | network_0/router_7_2 |   No output VC allocated.
6465 | network_0/router_7_2 | Beginning VC allocation for VC 1 at input 1 (front: 192022).
6465 | network_0/router_7_2 |   VC 0 at output 0 is in use by VC 1 at input 4 (front flit: 260727).
6465 | network_0/router_7_2 |   VC 1 at output 0 is in use by VC 0 at input 1 (front flit: 191603).
6465 | network_0/router_7_2 | Completed VC allocation for VC 1 at input 1 (front: 192022).
6465 | network_0/router_7_2 |   No output VC allocated.
6465 | network_0/router_7_2 | Beginning VC allocation for VC 1 at input 1 (front: 192022).
6465 | network_0/router_7_2 |   Requesting VC 0 at output 0 (in_pri: 0, out_pri: 0).
6465 | network_0/router_7_2 |   VC 1 at output 0 is in use by VC 0 at input 1 (front flit: 191603).
6465 | network_0/router_7_2/vc_allocator | Input requests = [ 3 -> [ 0@0 ]  ], output requests = [ 0 -> [ 3@0 ]  ].
6465 | network_0/router_7_2/vc_allocator | Input grants = [ 3 -> 0  ], output grants = [ 0 -> 3  ].
6465 | network_0/router_7_2 | Assigning VC 0 at output 0 to VC 1 at input 1.
6465 | network_0/router_7_2 | Completed VC allocation for VC 1 at input 1 (front: 192022).
6465 | network_0/router_7_2 |   Acquiring assigned VC 0 at output 0.
6465 | network_0/router_7_2/buf_1/vc_1 | Changing state from vc_alloc to active.
6466 | network_0/router_7_2 | Beginning switch allocation for VC 1 at input 1 (front: 192022).
6466 | network_0/router_7_2 |   VC 0 at output 0 is full.
6466 | network_0/router_7_2 | Completed switch allocation for VC 1 at input 1 (front: 192022).
6466 | network_0/router_7_2 |   No output port allocated.
6466 | network_0/router_7_2 | Beginning switch allocation for VC 1 at input 1 (front: 192022).
6466 | network_0/router_7_2 |   VC 0 at output 0 is full.
6466 | network_0/router_7_2 | Completed switch allocation for VC 1 at input 1 (front: 192022).
6466 | network_0/router_7_2 |   No output port allocated.
6467 | network_0/router_7_2 | Beginning switch allocation for VC 1 at input 1 (front: 192022).
6467 | network_0/router_7_2 |   VC 0 at output 0 is full.
6467 | network_0/router_7_2 | Completed switch allocation for VC 1 at input 1 (front: 192022).
6467 | network_0/router_7_2 |   No output port allocated.
6467 | network_0/router_7_2 | Beginning switch allocation for VC 1 at input 1 (front: 192022).
6467 | network_0/router_7_2 |   VC 0 at output 0 is full.
6467 | network_0/router_7_2 | Completed switch allocation for VC 1 at input 1 (front: 192022).
6467 | network_0/router_7_2 |   No output port allocated.
6468 | network_0/router_7_2 | Beginning switch allocation for VC 1 at input 1 (front: 192022).
6468 | network_0/router_7_2 |   Requesting output 0.0 (non-spec, pri: 0).
6468 | network_0/router_7_2/sw_allocator | Input requests = [ 1 -> [ 0@0 ]  ], output requests = [ 0 -> [ 1@0 ]  ].
6468 | network_0/router_7_2/sw_allocator | Input grants = [ 1 -> 0  ], output grants = [ 0 -> 1  ].
6468 | network_0/router_7_2 | Assigning output 0.0 to VC 1 at input 1.0.
6468 | network_0/router_7_2 | Completed switch allocation for VC 1 at input 1 (front: 192022).
6468 | network_0/router_7_2 |   Scheduling switch connection from input 1.0 to output 0.0.
6468 | network_0/router_7_2 | Updating lookahead routing information for flit 192022.
6468 | network_0/router_7_3 | Adding VC range [0,1] at output port 0 for flit 192022 (input port 1, destination 44).
6468 | network_0/router_7_2 | Beginning crossbar traversal for flit 192022 from input 1.0 to output 0.0.
6468 | network_0/router_7_2 | Completed crossbar traversal for flit 192022 from input 1.0 to output 0.0.
6468 | network_0/router_7_2 | Buffering flit 192022 at output 0.
6468 | network_0/router_7_2 | Sending flit 192022 to channel at output 0.
6469 | network_0/network_0_fchan_232 | Beginning channel traversal for flit 192022 with delay 1.
6469 | network_0/network_0_fchan_232 | Completed channel traversal for flit 192022.
6470 | network_0/router_7_3 | Received flit 192022 from channel at input 1.
6470 | network_0/router_7_3 | Adding flit 192022 to VC 0 at input 1 (state: active, front: 237048).
Additional hops: 151
Adding flit 268530 as NACK at time 6775
Additional hops: 154
Adding flit 176729 as NACK at time 6822
Reenqueueing errored packet 176729 at time 6829
7118 | network_0/router_7_3 | Using precomputed lookahead routing information for VC 0 at input 1 (front: 192022).
7118 | network_0/router_7_3/buf_1/vc_0 | Changing state from active to vc_alloc.
7119 | network_0/router_7_3 | Beginning VC allocation for VC 0 at input 1 (front: 192022).
7119 | network_0/router_7_3 |   VC 0 at output 0 is in use by VC 0 at input 4 (front flit: 286100).
7119 | network_0/router_7_3 |   Requesting VC 1 at output 0 (in_pri: 0, out_pri: 0).
7119 | network_0/router_7_3/vc_allocator | Input requests = [ 2 -> [ 1@0 ]  3 -> [ 1@0 ]  6 -> [ 8@0 9@0 ]  9 -> [ 2@0 ]  ], output requests = [ 1 -> [ 2@0 3@0 ]  2 -> [ 9@0 ]  8 -> [ 6@0 ]  9 -> [ 6@0 ]  ].
7119 | network_0/router_7_3/vc_allocator | Input grants = [ 3 -> 1  6 -> 9  9 -> 2  ], output grants = [ 1 -> 3  2 -> 9  9 -> 6  ].
7119 | network_0/router_7_3 | VC allocation failed for VC 0 at input 1.
7119 | network_0/router_7_3 | Completed VC allocation for VC 0 at input 1 (front: 192022).
7119 | network_0/router_7_3 |   No output VC allocated.
7119 | network_0/router_7_3 | Beginning VC allocation for VC 0 at input 1 (front: 192022).
7119 | network_0/router_7_3 |   Requesting VC 0 at output 0 (in_pri: 0, out_pri: 0).
7119 | network_0/router_7_3 |   VC 1 at output 0 is in use by VC 1 at input 1 (front flit: 194101).
7119 | network_0/router_7_3/vc_allocator | Input requests = [ 2 -> [ 0@0 ]  8 -> [ 0@0 ]  ], output requests = [ 0 -> [ 2@0 8@0 ]  ].
7119 | network_0/router_7_3/vc_allocator | Input grants = [ 2 -> 0  ], output grants = [ 0 -> 2  ].
7119 | network_0/router_7_3 | Assigning VC 0 at output 0 to VC 0 at input 1.
7119 | network_0/router_7_3 | Completed VC allocation for VC 0 at input 1 (front: 192022).
7119 | network_0/router_7_3 |   Acquiring assigned VC 0 at output 0.
7119 | network_0/router_7_3/buf_1/vc_0 | Changing state from vc_alloc to active.
7120 | network_0/router_7_3 | Beginning switch allocation for VC 0 at input 1 (front: 192022).
7120 | network_0/router_7_3 |   VC 0 at output 0 is full.
7120 | network_0/router_7_3 | Completed switch allocation for VC 0 at input 1 (front: 192022).
7120 | network_0/router_7_3 |   No output port allocated.
7120 | network_0/router_7_3 | Beginning switch allocation for VC 0 at input 1 (front: 192022).
7120 | network_0/router_7_3 |   VC 0 at output 0 is full.
7120 | network_0/router_7_3 | Completed switch allocation for VC 0 at input 1 (front: 192022).
7120 | network_0/router_7_3 |   No output port allocated.
7121 | network_0/router_7_3 | Beginning switch allocation for VC 0 at input 1 (front: 192022).
7121 | network_0/router_7_3 |   Requesting output 0.0 (non-spec, pri: 0).
7121 | network_0/router_7_3/sw_allocator | Input requests = [ 0 -> [ 1@0 ]  1 -> [ 0@0 ]  ], output requests = [ 0 -> [ 1@0 ]  1 -> [ 0@0 ]  ].
7121 | network_0/router_7_3/sw_allocator | Input grants = [ 0 -> 1  1 -> 0  ], output grants = [ 0 -> 1  1 -> 0  ].
7121 | network_0/router_7_3 | Assigning output 0.0 to VC 0 at input 1.0.
7121 | network_0/router_7_3 | Completed switch allocation for VC 0 at input 1 (front: 192022).
7121 | network_0/router_7_3 |   Scheduling switch connection from input 1.0 to output 0.0.
7121 | network_0/router_7_3 | Updating lookahead routing information for flit 192022.
7121 | network_0/router_7_4 | Adding VC range [0,1] at output port 3 for flit 192022 (input port 1, destination 44).
7121 | network_0/router_7_3 | Beginning crossbar traversal for flit 192022 from input 1.0 to output 0.0.
7121 | network_0/router_7_3 | Completed crossbar traversal for flit 192022 from input 1.0 to output 0.0.
7121 | network_0/router_7_3 | Buffering flit 192022 at output 0.
7585 | network_0/router_7_3 | Sending flit 192022 to channel at output 0.
7586 | network_0/network_0_fchan_236 | Beginning channel traversal for flit 192022 with delay 1.
7586 | network_0/network_0_fchan_236 | Completed channel traversal for flit 192022.
7587 | network_0/router_7_4 | Received flit 192022 from channel at input 1.
7587 | network_0/router_7_4 | Adding flit 192022 to VC 0 at input 1 (state: vc_alloc, front: 284985).
7656 | network_0/router_7_4 | Using precomputed lookahead routing information for VC 0 at input 1 (front: 192022).
7656 | network_0/router_7_4/buf_1/vc_0 | Changing state from active to vc_alloc.
7656 | network_0/router_7_4 | Beginning VC allocation for VC 0 at input 1 (front: 192022).
7656 | network_0/router_7_4 |   Requesting VC 0 at output 3 (in_pri: 0, out_pri: 0).
7656 | network_0/router_7_4 |   Requesting VC 1 at output 3 (in_pri: 0, out_pri: 0).
7656 | network_0/router_7_4/vc_allocator | Input requests = [ 1 -> [ 3@0 ]  2 -> [ 6@0 7@0 ]  ], output requests = [ 3 -> [ 1@0 ]  6 -> [ 2@0 ]  7 -> [ 2@0 ]  ].
7656 | network_0/router_7_4/vc_allocator | Input grants = [ 1 -> 3  2 -> 6  ], output grants = [ 3 -> 1  6 -> 2  ].
7656 | network_0/router_7_4 | Assigning VC 0 at output 3 to VC 0 at input 1.
7656 | network_0/router_7_4 | Completed VC allocation for VC 0 at input 1 (front: 192022).
7656 | network_0/router_7_4 |   Acquiring assigned VC 0 at output 3.
7656 | network_0/router_7_4/buf_1/vc_0 | Changing state from vc_alloc to active.
7657 | network_0/router_7_4 | Beginning switch allocation for VC 0 at input 1 (front: 192022).
7657 | network_0/router_7_4 |   Requesting output 3.0 (non-spec, pri: 0).
7657 | network_0/router_7_4/sw_allocator | Input requests = [ 0 -> [ 1@0 ]  1 -> [ 3@0 ]  ], output requests = [ 1 -> [ 0@0 ]  3 -> [ 1@0 ]  ].
7657 | network_0/router_7_4/sw_allocator | Input grants = [ 0 -> 1  1 -> 3  ], output grants = [ 1 -> 0  3 -> 1  ].
7657 | network_0/router_7_4 | Assigning output 3.0 to VC 0 at input 1.0.
7657 | network_0/router_7_4 | Completed switch allocation for VC 0 at input 1 (front: 192022).
7657 | network_0/router_7_4 |   Scheduling switch connection from input 1.0 to output 3.0.
7657 | network_0/router_7_4 | Updating lookahead routing information for flit 192022.
7657 | network_0/router_6_4 | Adding VC range [0,1] at output port 3 for flit 192022 (input port 2, destination 44).
7657 | network_0/router_7_4 | Beginning crossbar traversal for flit 192022 from input 1.0 to output 3.0.
7657 | network_0/router_7_4 | Completed crossbar traversal for flit 192022 from input 1.0 to output 3.0.
7657 | network_0/router_7_4 | Buffering flit 192022 at output 3.
7657 | network_0/router_7_4 | Sending flit 192022 to channel at output 3.
7658 | network_0/network_0_fchan_243 | Beginning channel traversal for flit 192022 with delay 1.
7658 | network_0/network_0_fchan_243 | Completed channel traversal for flit 192022.
7659 | network_0/router_6_4 | Received flit 192022 from channel at input 2.
7659 | network_0/router_6_4 | Adding flit 192022 to VC 0 at input 2 (state: idle, empty).
7659 | network_0/router_6_4 | Using precomputed lookahead routing information for VC 0 at input 2 (front: 192022).
7659 | network_0/router_6_4/buf_2/vc_0 | Changing state from idle to vc_alloc.
7659 | network_0/router_6_4 | Beginning VC allocation for VC 0 at input 2 (front: 192022).
7659 | network_0/router_6_4 |   Requesting VC 0 at output 3 (in_pri: 0, out_pri: 0).
7659 | network_0/router_6_4 |   Requesting VC 1 at output 3 (in_pri: 0, out_pri: 0).
7659 | network_0/router_6_4/vc_allocator | Input requests = [ 2 -> [ 0@0 ]  3 -> [ 0@0 ]  4 -> [ 6@0 7@0 ]  6 -> [ 4@0 5@0 ]  ], output requests = [ 0 -> [ 2@0 3@0 ]  4 -> [ 6@0 ]  5 -> [ 6@0 ]  6 -> [ 4@0 ]  7 -> [ 4@0 ]  ].
7659 | network_0/router_6_4/vc_allocator | Input grants = [ 2 -> 0  4 -> 7  6 -> 4  ], output grants = [ 0 -> 2  4 -> 6  7 -> 4  ].
7659 | network_0/router_6_4 | Assigning VC 1 at output 3 to VC 0 at input 2.
7659 | network_0/router_6_4 | Completed VC allocation for VC 0 at input 2 (front: 192022).
7659 | network_0/router_6_4 |   Acquiring assigned VC 1 at output 3.
7659 | network_0/router_6_4/buf_2/vc_0 | Changing state from vc_alloc to active.
7659 | network_0/router_6_4 | Beginning switch allocation for VC 0 at input 2 (front: 192022).
7659 | network_0/router_6_4 |   Requesting output 3.0 (non-spec, pri: 0).
7659 | network_0/router_6_4/sw_allocator | Input requests = [ 2 -> [ 3@0 ]  3 -> [ 2@0 ]  4 -> [ 1@0 ]  ], output requests = [ 1 -> [ 4@0 ]  2 -> [ 3@0 ]  3 -> [ 2@0 ]  ].
7659 | network_0/router_6_4/sw_allocator | Input grants = [ 2 -> 3  3 -> 2  4 -> 1  ], output grants = [ 1 -> 4  2 -> 3  3 -> 2  ].
7659 | network_0/router_6_4 | Assigning output 3.0 to VC 0 at input 2.0.
7659 | network_0/router_6_4 | Completed switch allocation for VC 0 at input 2 (front: 192022).
7659 | network_0/router_6_4 |   Scheduling switch connection from input 2.0 to output 3.0.
7659 | network_0/router_6_4 | Updating lookahead routing information for flit 192022.
7659 | network_0/router_5_4 | Adding VC range [0,1] at output port 4 for flit 192022 (input port 2, destination 44).
7660 | network_0/router_6_4 | Beginning crossbar traversal for flit 192022 from input 2.0 to output 3.0.
7660 | network_0/router_6_4 | Completed crossbar traversal for flit 192022 from input 2.0 to output 3.0.
7660 | network_0/router_6_4 | Buffering flit 192022 at output 3.
7660 | network_0/router_6_4 | Sending flit 192022 to channel at output 3.
7661 | network_0/network_0_fchan_211 | Beginning channel traversal for flit 192022 with delay 1.
7661 | network_0/network_0_fchan_211 | Completed channel traversal for flit 192022.
7662 | network_0/router_5_4 | Received flit 192022 from channel at input 2.
7662 | network_0/router_5_4 | Adding flit 192022 to VC 1 at input 2 (state: idle, empty).
7662 | network_0/router_5_4 | Using precomputed lookahead routing information for VC 1 at input 2 (front: 192022).
7662 | network_0/router_5_4/buf_2/vc_1 | Changing state from idle to vc_alloc.
7662 | network_0/router_5_4 | Beginning VC allocation for VC 1 at input 2 (front: 192022).
7662 | network_0/router_5_4 |   Requesting VC 0 at output 4 (in_pri: 0, out_pri: 0).
7662 | network_0/router_5_4 |   Requesting VC 1 at output 4 (in_pri: 0, out_pri: 0).
7662 | network_0/router_5_4/vc_allocator | Input requests = [ 2 -> [ 1@0 ]  3 -> [ 1@0 ]  5 -> [ 8@0 9@0 ]  6 -> [ 4@0 5@0 ]  ], output requests = [ 1 -> [ 2@0 3@0 ]  4 -> [ 6@0 ]  5 -> [ 6@0 ]  8 -> [ 5@0 ]  9 -> [ 5@0 ]  ].
7662 | network_0/router_5_4/vc_allocator | Input grants = [ 3 -> 1  5 -> 8  6 -> 4  ], output grants = [ 1 -> 3  4 -> 6  8 -> 5  ].
7662 | network_0/router_5_4 | Assigning VC 0 at output 4 to VC 1 at input 2.
7662 | network_0/router_5_4 | Completed VC allocation for VC 1 at input 2 (front: 192022).
7662 | network_0/router_5_4 |   Acquiring assigned VC 0 at output 4.
7662 | network_0/router_5_4/buf_2/vc_1 | Changing state from vc_alloc to active.
7662 | network_0/router_5_4 | Beginning switch allocation for VC 1 at input 2 (front: 192022).
7662 | network_0/router_5_4 |   Requesting output 4.0 (non-spec, pri: 0).
7662 | network_0/router_5_4/sw_allocator | Input requests = [ 2 -> [ 4@0 ]  3 -> [ 2@0 ]  ], output requests = [ 2 -> [ 3@0 ]  4 -> [ 2@0 ]  ].
7662 | network_0/router_5_4/sw_allocator | Input grants = [ 2 -> 4  3 -> 2  ], output grants = [ 2 -> 3  4 -> 2  ].
7662 | network_0/router_5_4 | Assigning output 4.0 to VC 1 at input 2.0.
7662 | network_0/router_5_4 | Completed switch allocation for VC 1 at input 2 (front: 192022).
7662 | network_0/router_5_4 |   Scheduling switch connection from input 2.0 to output 4.0.
7663 | network_0/router_5_4 | Beginning crossbar traversal for flit 192022 from input 2.0 to output 4.0.
7663 | network_0/router_5_4 | Completed crossbar traversal for flit 192022 from input 2.0 to output 4.0.
7663 | network_0/router_5_4 | Buffering flit 192022 at output 4.
7663 | network_0/router_5_4 | Sending flit 192022 to channel at output 4.
7664 | network_0/network_0_fchan_egress44 | Beginning channel traversal for flit 192022 with delay 1.
7664 | network_0/network_0_fchan_egress44 | Completed channel traversal for flit 192022.
7665 | node44 | Ejecting flit 192022 (packet 192022) from VC 0.
7665 | node44 | Injecting credit for VC 0 into subnet 0.
7665 | node44 | Retiring flit 192022 (packet 192022, src = 57, dest = 44, hops = 6, flat = 4079).
7665 | node44 | Retiring packet 192022 (plat = 5299, nlat = 4079, frag = 0, src = 57, dest = 44).
Additional hops: 158
Adding flit 161752 as NACK at time 7834
Additional hops: 160
Adding flit 294448 as NACK at time 8271
Additional hops: 166
Adding flit 328373 as NACK at time 9557
Additional hops: 170
Adding flit 335798 as NACK at time 9840
Additional hops: 174
Adding flit 349312 as NACK at time 9901
Class 0:
Packet latency average = 2025.57
	minimum = 5
	maximum = 7275
Network latency average = 1623.91
	minimum = 5
	maximum = 7271
Slowest packet = 159489
Flit latency average = 1623.91
	minimum = 5
	maximum = 7271
Slowest flit = 159489
Fragmentation average = 0
	minimum = 0
	maximum = 0
Injected packet rate average = 0.619602
	minimum = 0.4156 (at node 41)
	maximum = 0.9127 (at node 51)
Accepted packet rate average = 0.501162
	minimum = 0.4772 (at node 21)
	maximum = 0.5156 (at node 15)
Injected flit rate average = 0.619602
	minimum = 0.4156 (at node 41)
	maximum = 0.9127 (at node 51)
Accepted flit rate average= 0.501162
	minimum = 0.4772 (at node 21)
	maximum = 0.5156 (at node 15)
Injected packet length average = 1
Accepted packet length average = 1
Total in-flight flits = 75843 (0 measured)
latency change    = 1
throughput change = 1
Average latency for class 0 exceeded 500 cycles. Aborting simulation.
Too many sample periods needed to converge
Simulation unstable, ending ...
Total run time 100.571
