BEGIN Configuration File: examples/ecc_mesh88_config_0_0.600_packet_2
// $Id$

// Copyright (c) 2007-2015, Trustees of The Leland Stanford Junior University
// All rights reserved.
//
// Redistribution and use in source and binary forms, with or without
// modification, are permitted provided that the following conditions are met:
//
// Redistributions of source code must retain the above copyright notice, this
// list of conditions and the following disclaimer.
// Redistributions in binary form must reproduce the above copyright notice,
// this list of conditions and the following disclaimer in the documentation
// and/or other materials provided with the distribution.
//
// THIS SOFTWARE IS PROVIDED BY THE COPYRIGHT HOLDERS AND CONTRIBUTORS "AS IS"
// AND ANY EXPRESS OR IMPLIED WARRANTIES, INCLUDING, BUT NOT LIMITED TO, THE
// IMPLIED WARRANTIES OF MERCHANTABILITY AND FITNESS FOR A PARTICULAR PURPOSE
// ARE DISCLAIMED. IN NO EVENT SHALL THE COPYRIGHT OWNER OR CONTRIBUTORS BE
// LIABLE FOR ANY DIRECT, INDIRECT, INCIDENTAL, SPECIAL, EXEMPLARY, OR
// CONSEQUENTIAL DAMAGES (INCLUDING, BUT NOT LIMITED TO, PROCUREMENT OF
// SUBSTITUTE GOODS OR SERVICES; LOSS OF USE, DATA, OR PROFITS; OR BUSINESS
// INTERRUPTION) HOWEVER CAUSED AND ON ANY THEORY OF LIABILITY, WHETHER IN
// CONTRACT, STRICT LIABILITY, OR TORT (INCLUDING NEGLIGENCE OR OTHERWISE)
// ARISING IN ANY WAY OUT OF THE USE OF THIS SOFTWARE, EVEN IF ADVISED OF THE
// POSSIBILITY OF SUCH DAMAGE.

// Dragonfly
//




vc_buf_size = 256;


wait_for_tail_credit = 0;

//
// Router architecture
//
vc_allocator = separable_input_first; 
sw_allocator = separable_input_first;
alloc_iters  = 1;

credit_delay   = 2;
routing_delay  = 0;
vc_alloc_delay = 1;
sw_alloc_delay = 1;
st_final_delay = 1;

input_speedup     = 1;
output_speedup    = 1;
internal_speedup  = 2.0;


warmup_periods = 3;
sim_count          = 1;

sample_period  = 10000;  


routing_function = dor;
num_vcs     = 2;

priority = none;
traffic       = uniform; 

injection_rate = 0.6;
packet_size = 1;
injection_rate_uses_flits=1;

topology = mesh;

k  = 8;
n  = 2;

fer = 2;
ecc = link;
correctable = 0;

watch_out=-;
watch_file = watch.txt;

ecc = packet;

stats_out = examples/ecc_mesh88_config_0_0.600_packet_2.m;

END Configuration File: examples/ecc_mesh88_config_0_0.600_packet_2
Additional hops: 3
Adding flit 168 as NACK at time 15
Additional hops: 8
Adding flit 6 as NACK at time 17
Additional hops: 13
Adding flit 7 as NACK at time 18
Additional hops: 18
Adding flit 16 as NACK at time 18
Additional hops: 21
Adding flit 318 as NACK at time 20
Additional hops: 23
Adding flit 511 as NACK at time 21
Additional hops: 25
Adding flit 509 as NACK at time 21
Additional hops: 28
Adding flit 282 as NACK at time 21
Reenqueueing errored packet 168 at time 22
Additional hops: 34
Adding flit 129 as NACK at time 23
Additional hops: 38
Adding flit 363 as NACK at time 24
Additional hops: 39
Adding flit 744 as NACK at time 25
Additional hops: 43
Adding flit 418 as NACK at time 25
Reenqueueing errored packet 509 at time 26
Reenqueueing errored packet 511 at time 26
Additional hops: 50
Adding flit 134 as NACK at time 26
Additional hops: 54
Adding flit 465 as NACK at time 26
Reenqueueing errored packet 318 at time 27
Reenqueueing errored packet 744 at time 28
Reenqueueing errored packet 282 at time 28
Reenqueueing errored packet 6 at time 28
Reenqueueing errored packet 16 at time 29
Reenqueueing errored packet 7 at time 29
Additional hops: 62
Adding flit 178 as NACK at time 31
Additional hops: 69
Adding flit 194 as NACK at time 32
Additional hops: 74
Adding flit 384 as NACK at time 32
Reenqueueing errored packet 363 at time 33
Additional hops: 79
Adding flit 536 as NACK at time 33
Reenqueueing errored packet 418 at time 34
Additional hops: 81
Adding flit 1003 as NACK at time 34
Additional hops: 86
Adding flit 457 as NACK at time 34
Reenqueueing errored packet 465 at time 35
Additional hops: 93
Adding flit 374 as NACK at time 35
Reenqueueing errored packet 129 at time 36
Additional hops: 100
Adding flit 328 as NACK at time 37
Additional hops: 107
Adding flit 430 as NACK at time 38
Additional hops: 113
Adding flit 514 as NACK at time 38
Additional hops: 118
Adding flit 645 as NACK at time 38
Reenqueueing errored packet 1003 at time 39
Additional hops: 126
Adding flit 389 as NACK at time 39
Reenqueueing errored packet 134 at time 41
Additional hops: 131
Adding flit 550 as NACK at time 41
Additional hops: 135
Adding flit 887 as NACK at time 41
Reenqueueing errored packet 384 at time 43
Additional hops: 141
Adding flit 715 as NACK at time 43
Additional hops: 145
Adding flit 850 as NACK at time 43
Reenqueueing errored packet 536 at time 44
Additional hops: 149
Adding flit 1047 as NACK at time 44
Additional hops: 155
Adding flit 731 as NACK at time 44
Reenqueueing errored packet 457 at time 45
Additional hops: 162
Adding flit 656 as NACK at time 45
Additional hops: 164
Adding flit 1438 as NACK at time 45
Additional hops: 172
Adding flit 658 as NACK at time 46
Additional hops: 177
Adding flit 741 as NACK at time 46
Reenqueueing errored packet 194 at time 47
Reenqueueing errored packet 178 at time 48
Additional hops: 180
Adding flit 1331 as NACK at time 48
Additional hops: 184
Adding flit 1019 as NACK at time 48
Additional hops: 192
Adding flit 638 as NACK at time 48
Reenqueueing errored packet 645 at time 49
Additional hops: 199
Adding flit 879 as NACK at time 49
Reenqueueing errored packet 1438 at time 50
Reenqueueing errored packet 887 at time 50
Reenqueueing errored packet 374 at time 50
Reenqueueing errored packet 514 at time 51
Additional hops: 208
Adding flit 474 as NACK at time 51
Additional hops: 216
Adding flit 688 as NACK at time 51
Additional hops: 223
Adding flit 843 as NACK at time 51
Additional hops: 230
Adding flit 989 as NACK at time 51
Reenqueueing errored packet 850 at time 52
Reenqueueing errored packet 550 at time 52
Reenqueueing errored packet 328 at time 52
Additional hops: 234
Adding flit 1337 as NACK at time 52
Reenqueueing errored packet 1047 at time 53
Reenqueueing errored packet 430 at time 53
Additional hops: 241
Adding flit 1082 as NACK at time 53
Additional hops: 247
Adding flit 766 as NACK at time 53
Additional hops: 252
Adding flit 992 as NACK at time 54
Additional hops: 256
Adding flit 1366 as NACK at time 54
Additional hops: 264
Adding flit 631 as NACK at time 54
Reenqueueing errored packet 1331 at time 55
Additional hops: 272
Adding flit 667 as NACK at time 55
Additional hops: 276
Adding flit 1296 as NACK at time 55
Additional hops: 287
Adding flit 637 as NACK at time 55
Additional hops: 293
Adding flit 1224 as NACK at time 55
Reenqueueing errored packet 715 at time 56
Reenqueueing errored packet 389 at time 56
Additional hops: 299
Adding flit 1179 as NACK at time 56
Additional hops: 306
Adding flit 920 as NACK at time 56
Reenqueueing errored packet 1019 at time 57
Reenqueueing errored packet 741 at time 57
Reenqueueing errored packet 731 at time 57
Additional hops: 310
Adding flit 1422 as NACK at time 57
Additional hops: 319
Adding flit 612 as NACK at time 57
Additional hops: 327
Adding flit 763 as NACK at time 59
Additional hops: 332
Adding flit 1335 as NACK at time 59
Additional hops: 340
Adding flit 836 as NACK at time 59
Reenqueueing errored packet 656 at time 60
Additional hops: 344
Adding flit 1698 as NACK at time 60
Additional hops: 348
Adding flit 1637 as NACK at time 60
Reenqueueing errored packet 1337 at time 61
Additional hops: 353
Adding flit 1261 as NACK at time 61
Additional hops: 359
Adding flit 995 as NACK at time 61
Additional hops: 363
Adding flit 1583 as NACK at time 62
Additional hops: 369
Adding flit 1258 as NACK at time 62
Additional hops: 378
Adding flit 841 as NACK at time 62
Reenqueueing errored packet 1366 at time 63
Reenqueueing errored packet 658 at time 63
Additional hops: 386
Adding flit 842 as NACK at time 63
Additional hops: 395
Adding flit 897 as NACK at time 63
Additional hops: 402
Adding flit 971 as NACK at time 63
Reenqueueing errored packet 1296 at time 64
Reenqueueing errored packet 879 at time 64
Additional hops: 410
Adding flit 1317 as NACK at time 64
Additional hops: 416
Adding flit 1249 as NACK at time 64
Additional hops: 421
Adding flit 1535 as NACK at time 64
Additional hops: 432
Adding flit 816 as NACK at time 64
Additional hops: 439
Adding flit 1501 as NACK at time 64
Reenqueueing errored packet 992 at time 65
Reenqueueing errored packet 638 at time 65
Additional hops: 442
Adding flit 1737 as NACK at time 65
Additional hops: 447
Adding flit 1449 as NACK at time 65
Additional hops: 459
Adding flit 609 as NACK at time 65
Reenqueueing errored packet 1422 at time 66
Reenqueueing errored packet 766 at time 66
Reenqueueing errored packet 989 at time 66
Reenqueueing errored packet 843 at time 66
Additional hops: 463
Adding flit 1572 as NACK at time 66
Additional hops: 469
Adding flit 1483 as NACK at time 66
Additional hops: 480
Adding flit 706 as NACK at time 66
Additional hops: 486
Adding flit 1316 as NACK at time 66
Additional hops: 494
Adding flit 968 as NACK at time 67
Additional hops: 500
Adding flit 1370 as NACK at time 67
Additional hops: 507
Adding flit 1075 as NACK at time 67
Additional hops: 518
Adding flit 905 as NACK at time 67
Additional hops: 530
Adding flit 606 as NACK at time 67
Reenqueueing errored packet 1224 at time 68
Reenqueueing errored packet 1082 at time 68
Reenqueueing errored packet 688 at time 68
Additional hops: 537
Adding flit 1669 as NACK at time 68
Reenqueueing errored packet 1637 at time 69
Reenqueueing errored packet 1698 at time 69
Reenqueueing errored packet 1179 at time 69
Additional hops: 542
Adding flit 1319 as NACK at time 69
Additional hops: 545
Adding flit 2272 as NACK at time 69
Reenqueueing errored packet 1335 at time 70
Reenqueueing errored packet 474 at time 70
Additional hops: 550
Adding flit 1414 as NACK at time 70
Reenqueueing errored packet 1583 at time 71
Reenqueueing errored packet 920 at time 71
Reenqueueing errored packet 631 at time 71
Additional hops: 562
Adding flit 1015 as NACK at time 71
Additional hops: 573
Adding flit 815 as NACK at time 71
Reenqueueing errored packet 1737 at time 72
Reenqueueing errored packet 1261 at time 72
Reenqueueing errored packet 667 at time 72
Additional hops: 577
Adding flit 1913 as NACK at time 72
Additional hops: 586
Adding flit 1072 as NACK at time 73
Reenqueueing errored packet 995 at time 74
Additional hops: 595
Adding flit 839 as NACK at time 74
Additional hops: 602
Adding flit 1454 as NACK at time 74
Additional hops: 614
Adding flit 679 as NACK at time 74
Reenqueueing errored packet 1572 at time 75
Reenqueueing errored packet 1535 at time 75
Reenqueueing errored packet 1258 at time 75
Reenqueueing errored packet 2272 at time 76
Reenqueueing errored packet 1449 at time 76
Reenqueueing errored packet 836 at time 76
Reenqueueing errored packet 763 at time 76
Reenqueueing errored packet 612 at time 76
Additional hops: 617
Adding flit 2300 as NACK at time 76
Reenqueueing errored packet 1249 at time 77
Additional hops: 625
Adding flit 1019 as NACK at time 77
Reenqueueing errored packet 971 at time 78
Reenqueueing errored packet 637 at time 78
Additional hops: 632
Adding flit 1882 as NACK at time 78
Reenqueueing errored packet 1316 at time 79
Reenqueueing errored packet 1483 at time 79
Reenqueueing errored packet 1501 at time 79
Additional hops: 638
Adding flit 1589 as NACK at time 79
Reenqueueing errored packet 1319 at time 80
Reenqueueing errored packet 1370 at time 80
Reenqueueing errored packet 842 at time 80
Additional hops: 646
Adding flit 961 as NACK at time 80
Reenqueueing errored packet 1913 at time 81
Reenqueueing errored packet 1414 at time 81
Reenqueueing errored packet 1317 at time 81
Reenqueueing errored packet 841 at time 81
Additional hops: 651
Adding flit 1573 as NACK at time 81
Additional hops: 660
Adding flit 1237 as NACK at time 81
Additional hops: 665
Adding flit 2271 as NACK at time 81
Reenqueueing errored packet 1075 at time 82
Reenqueueing errored packet 897 at time 82
Additional hops: 669
Adding flit 1773 as NACK at time 82
Uncorrectable 3
Additional hops: 675
Adding flit 1659 as NACK at time 82
Additional hops: 683
Adding flit 1324 as NACK at time 82
Additional hops: 687
Adding flit 2475 as NACK at time 82
Reenqueueing errored packet 2300 at time 83
Reenqueueing errored packet 1669 at time 83
Additional hops: 693
Adding flit 1624 as NACK at time 83
Reenqueueing errored packet 968 at time 84
Additional hops: 703
Adding flit 1457 as NACK at time 84
Additional hops: 709
Adding flit 2024 as NACK at time 85
Additional hops: 715
Adding flit 2386 as NACK at time 86
Reenqueueing errored packet 816 at time 87
Additional hops: 719
Adding flit 2498 as NACK at time 87
Additional hops: 724
Adding flit 2166 as NACK at time 87
Additional hops: 728
Adding flit 2563 as NACK at time 87
Additional hops: 730
Adding flit 3098 as NACK at time 88
Additional hops: 737
Adding flit 1697 as NACK at time 88
Reenqueueing errored packet 1454 at time 89
Reenqueueing errored packet 706 at time 89
Reenqueueing errored packet 905 at time 90
Reenqueueing errored packet 609 at time 90
Additional hops: 745
Adding flit 1998 as NACK at time 90
Additional hops: 751
Adding flit 2320 as NACK at time 90
Additional hops: 760
Adding flit 1803 as NACK at time 90
Reenqueueing errored packet 2475 at time 91
Reenqueueing errored packet 1773 at time 91
Additional hops: 772
Adding flit 853 as NACK at time 91
Additional hops: 778
Adding flit 2115 as NACK at time 91
Reenqueueing errored packet 2271 at time 92
Reenqueueing errored packet 1573 at time 92
Reenqueueing errored packet 1589 at time 92
Reenqueueing errored packet 1072 at time 92
Reenqueueing errored packet 606 at time 92
Additional hops: 784
Adding flit 1447 as NACK at time 92
Additional hops: 791
Adding flit 1890 as NACK at time 92
Reenqueueing errored packet 3098 at time 93
Reenqueueing errored packet 1882 at time 93
Uncorrectable 3
Additional hops: 804
Adding flit 1079 as NACK at time 93
Additional hops: 807
Adding flit 3231 as NACK at time 93
Reenqueueing errored packet 1019 at time 94
Reenqueueing errored packet 815 at time 94
Additional hops: 819
Adding flit 1391 as NACK at time 94
Additional hops: 827
Adding flit 2124 as NACK at time 94
Additional hops: 833
Adding flit 2207 as NACK at time 94
Additional hops: 838
Adding flit 2420 as NACK at time 94
Reenqueueing errored packet 1659 at time 95
Additional hops: 844
Adding flit 2863 as NACK at time 95
Reenqueueing errored packet 2563 at time 96
Reenqueueing errored packet 2498 at time 96
Reenqueueing errored packet 1624 at time 96
Additional hops: 850
Adding flit 2634 as NACK at time 96
Additional hops: 855
Adding flit 2970 as NACK at time 96
Additional hops: 861
Adding flit 2363 as NACK at time 96
Additional hops: 866
Adding flit 2342 as NACK at time 96
Additional hops: 874
Adding flit 2346 as NACK at time 96
Reenqueueing errored packet 961 at time 97
Additional hops: 878
Adding flit 3028 as NACK at time 97
Additional hops: 885
Adding flit 1989 as NACK at time 97
Additional hops: 892
Adding flit 1540 as NACK at time 97
Reenqueueing errored packet 2166 at time 98
Reenqueueing errored packet 2024 at time 98
Additional hops: 902
Adding flit 1476 as NACK at time 98
Additional hops: 912
Adding flit 1757 as NACK at time 98
Reenqueueing errored packet 2386 at time 99
Reenqueueing errored packet 1324 at time 99
Reenqueueing errored packet 679 at time 99
Additional hops: 921
Adding flit 2282 as NACK at time 99
Additional hops: 927
Adding flit 2476 as NACK at time 99
Reenqueueing errored packet 3231 at time 100
Reenqueueing errored packet 1237 at time 100
Additional hops: 932
Adding flit 2971 as NACK at time 100
Additional hops: 938
Adding flit 2265 as NACK at time 100
Additional hops: 943
Adding flit 3102 as NACK at time 100
Additional hops: 949
Adding flit 2798 as NACK at time 101
Additional hops: 959
Adding flit 2080 as NACK at time 102
Additional hops: 970
Adding flit 1445 as NACK at time 102
Reenqueueing errored packet 2320 at time 103
Reenqueueing errored packet 1697 at time 103
Reenqueueing errored packet 2115 at time 104
Additional hops: 982
Adding flit 1390 as NACK at time 104
Reenqueueing errored packet 2420 at time 105
Reenqueueing errored packet 1447 at time 105
Reenqueueing errored packet 1457 at time 105
Additional hops: 987
Adding flit 3411 as NACK at time 105
Additional hops: 997
Adding flit 2032 as NACK at time 105
Additional hops: 1000
Adding flit 2941 as NACK at time 105
Reenqueueing errored packet 3028 at time 106
Additional hops: 1008
Adding flit 2480 as NACK at time 106
Reenqueueing errored packet 2342 at time 107
Reenqueueing errored packet 2970 at time 107
Reenqueueing errored packet 2207 at time 107
Reenqueueing errored packet 1890 at time 107
Reenqueueing errored packet 1998 at time 107
Additional hops: 1011
Adding flit 2768 as NACK at time 107
Additional hops: 1020
Adding flit 1787 as NACK at time 107
Additional hops: 1026
Adding flit 3200 as NACK at time 107
Reenqueueing errored packet 2863 at time 108
Additional hops: 1030
Adding flit 3392 as NACK at time 108
Additional hops: 1039
Adding flit 2179 as NACK at time 108
Reenqueueing errored packet 2363 at time 109
Reenqueueing errored packet 2634 at time 109
Reenqueueing errored packet 1803 at time 109
Additional hops: 1047
Adding flit 2119 as NACK at time 109
Additional hops: 1055
Adding flit 2886 as NACK at time 109
Additional hops: 1060
Adding flit 3526 as NACK at time 109
Additional hops: 1066
Adding flit 3253 as NACK at time 110
Additional hops: 1071
Adding flit 3145 as NACK at time 110
Additional hops: 1080
Adding flit 1762 as NACK at time 110
Additional hops: 1089
Adding flit 1821 as NACK at time 110
Reenqueueing errored packet 3102 at time 111
Reenqueueing errored packet 2971 at time 111
Reenqueueing errored packet 2124 at time 111
Additional hops: 1095
Adding flit 2779 as NACK at time 111
Additional hops: 1106
Adding flit 1760 as NACK at time 111
Reenqueueing errored packet 2941 at time 112
Reenqueueing errored packet 2476 at time 112
Reenqueueing errored packet 1540 at time 112
Reenqueueing errored packet 1989 at time 112
Additional hops: 1112
Adding flit 3178 as NACK at time 112
Additional hops: 1120
Adding flit 2246 as NACK at time 112
Additional hops: 1122
Adding flit 3941 as NACK at time 112
Additional hops: 1128
Adding flit 3256 as NACK at time 112
Reenqueueing errored packet 2265 at time 113
Reenqueueing errored packet 2346 at time 113
Additional hops: 1133
Adding flit 2847 as NACK at time 113
Additional hops: 1149
Adding flit 638 as NACK at time 113
Reenqueueing errored packet 2768 at time 114
Reenqueueing errored packet 2798 at time 114
Additional hops: 1153
Adding flit 3251 as NACK at time 114
Additional hops: 1162
Adding flit 2449 as NACK at time 114
Additional hops: 1167
Adding flit 2947 as NACK at time 115
Additional hops: 1177
Adding flit 3090 as NACK at time 115
Additional hops: 1187
Adding flit 2505 as NACK at time 115
Reenqueueing errored packet 3411 at time 116
Reenqueueing errored packet 853 at time 116
Additional hops: 1194
Adding flit 3035 as NACK at time 116
Reenqueueing errored packet 3941 at time 117
Reenqueueing errored packet 3392 at time 117
Additional hops: 1203
Adding flit 2424 as NACK at time 117
Additional hops: 1208
Adding flit 3817 as NACK at time 117
Reenqueueing errored packet 2282 at time 118
Reenqueueing errored packet 1757 at time 119
Reenqueueing errored packet 1476 at time 119
Reenqueueing errored packet 1391 at time 119
Additional hops: 1214
Adding flit 2916 as NACK at time 119
Reenqueueing errored packet 3526 at time 120
Reenqueueing errored packet 3200 at time 120
Reenqueueing errored packet 1079 at time 120
Additional hops: 1222
Adding flit 2343 as NACK at time 120
Additional hops: 1226
Adding flit 3260 as NACK at time 120
Additional hops: 1233
Adding flit 3443 as NACK at time 120
Additional hops: 1241
Adding flit 2185 as NACK at time 120
Reenqueueing errored packet 3145 at time 121
Additional hops: 1259
Adding flit 474 as NACK at time 121
Additional hops: 1270
Adding flit 1291 as NACK at time 121
Additional hops: 1275
Adding flit 2544 as NACK at time 122
Additional hops: 1279
Adding flit 3041 as NACK at time 122
Reenqueueing errored packet 3251 at time 123
Reenqueueing errored packet 3253 at time 123
Reenqueueing errored packet 2480 at time 123
Reenqueueing errored packet 2080 at time 123
Additional hops: 1287
Adding flit 2993 as NACK at time 123
Additional hops: 1297
Adding flit 2109 as NACK at time 123
Reenqueueing errored packet 2847 at time 124
Reenqueueing errored packet 2779 at time 124
Additional hops: 1305
Adding flit 2900 as NACK at time 124
Reenqueueing errored packet 3256 at time 125
Reenqueueing errored packet 3178 at time 125
Reenqueueing errored packet 1445 at time 125
Reenqueueing errored packet 2947 at time 126
Reenqueueing errored packet 2886 at time 126
Reenqueueing errored packet 2119 at time 126
Reenqueueing errored packet 1787 at time 126
Reenqueueing errored packet 2032 at time 126
Reenqueueing errored packet 2179 at time 127
Additional hops: 1313
Adding flit 2257 as NACK at time 127
Additional hops: 1322
Adding flit 2882 as NACK at time 127
Reenqueueing errored packet 3817 at time 128
Additional hops: 1326
Adding flit 3941 as NACK at time 128
Additional hops: 1335
Adding flit 2801 as NACK at time 128
Additional hops: 1337
Adding flit 4456 as NACK at time 128
Additional hops: 1346
Adding flit 2671 as NACK at time 128
Reenqueueing errored packet 3260 at time 129
Reenqueueing errored packet 2246 at time 129
Reenqueueing errored packet 1821 at time 129
Reenqueueing errored packet 1762 at time 129
Reenqueueing errored packet 1390 at time 129
Additional hops: 1353
Adding flit 2862 as NACK at time 129
Reenqueueing errored packet 3041 at time 131
Reenqueueing errored packet 3035 at time 131
Additional hops: 1361
Adding flit 2784 as NACK at time 131
Additional hops: 1367
Adding flit 3465 as NACK at time 131
Additional hops: 1373
Adding flit 3203 as NACK at time 131
Reenqueueing errored packet 2916 at time 132
Additional hops: 1375
Adding flit 4810 as NACK at time 132
Additional hops: 1383
Adding flit 2782 as NACK at time 132
Additional hops: 1395
Adding flit 2319 as NACK at time 132
Additional hops: 1405
Adding flit 2616 as NACK at time 132
Additional hops: 1415
Adding flit 2540 as NACK at time 132
Reenqueueing errored packet 4456 at time 133
Reenqueueing errored packet 2544 at time 133
Reenqueueing errored packet 2449 at time 133
Additional hops: 1425
Adding flit 2922 as NACK at time 133
Additional hops: 1437
Adding flit 995 as NACK at time 133
Reenqueueing errored packet 1760 at time 134
Additional hops: 1442
Adding flit 3747 as NACK at time 134
Reenqueueing errored packet 3443 at time 135
Additional hops: 1452
Adding flit 3337 as NACK at time 135
Additional hops: 1456
Adding flit 4410 as NACK at time 135
Additional hops: 1458
Adding flit 4911 as NACK at time 135
Reenqueueing errored packet 2424 at time 136
Reenqueueing errored packet 2505 at time 136
Reenqueueing errored packet 3090 at time 136
Reenqueueing errored packet 4810 at time 137
Reenqueueing errored packet 3941 at time 137
Reenqueueing errored packet 2185 at time 137
Reenqueueing errored packet 2343 at time 137
Additional hops: 1468
Adding flit 2467 as NACK at time 137
Additional hops: 1473
Adding flit 4176 as NACK at time 137
Additional hops: 1476
Adding flit 4041 as NACK at time 138
Additional hops: 1488
Adding flit 2684 as NACK at time 138
Additional hops: 1500
Adding flit 1802 as NACK at time 138
Additional hops: 1507
Adding flit 3536 as NACK at time 139
Additional hops: 1514
Adding flit 3018 as NACK at time 139
Additional hops: 1522
Adding flit 2435 as NACK at time 139
Reenqueueing errored packet 4911 at time 140
Reenqueueing errored packet 2993 at time 140
Additional hops: 1529
Adding flit 2767 as NACK at time 140
Reenqueueing errored packet 2900 at time 141
Additional hops: 1536
Adding flit 3210 as NACK at time 141
Additional hops: 1539
Adding flit 4947 as NACK at time 141
Additional hops: 1543
Adding flit 4382 as NACK at time 141
Additional hops: 1547
Adding flit 3905 as NACK at time 142
Additional hops: 1551
Adding flit 3553 as NACK at time 143
Additional hops: 1561
Adding flit 3963 as NACK at time 143
Reenqueueing errored packet 4410 at time 144
Reenqueueing errored packet 3203 at time 144
Reenqueueing errored packet 3465 at time 144
Reenqueueing errored packet 2257 at time 144
Reenqueueing errored packet 2109 at time 144
Reenqueueing errored packet 1291 at time 144
Additional hops: 1571
Adding flit 3082 as NACK at time 144
Additional hops: 1577
Adding flit 3429 as NACK at time 144
Additional hops: 1584
Adding flit 3012 as NACK at time 144
Reenqueueing errored packet 4041 at time 145
Reenqueueing errored packet 3747 at time 145
Additional hops: 1593
Adding flit 2807 as NACK at time 145
Reenqueueing errored packet 2882 at time 146
Reenqueueing errored packet 638 at time 146
Additional hops: 1602
Adding flit 2919 as NACK at time 146
Additional hops: 1610
Adding flit 3032 as NACK at time 146
Additional hops: 1617
Adding flit 3172 as NACK at time 146
Reenqueueing errored packet 2671 at time 147
Reenqueueing errored packet 2801 at time 147
Additional hops: 1626
Adding flit 3750 as NACK at time 147
Additional hops: 1631
Adding flit 4698 as NACK at time 147
Reenqueueing errored packet 4947 at time 148
Reenqueueing errored packet 4176 at time 148
Reenqueueing errored packet 2784 at time 148
Additional hops: 1641
Adding flit 3379 as NACK at time 148
Reenqueueing errored packet 2782 at time 149
Additional hops: 1651
Adding flit 2602 as NACK at time 149
Additional hops: 1657
Adding flit 3630 as NACK at time 149
Additional hops: 1663
Adding flit 4137 as NACK at time 149
Reenqueueing errored packet 4382 at time 150
Additional hops: 1671
Adding flit 3590 as NACK at time 150
Additional hops: 1677
Adding flit 3637 as NACK at time 150
Additional hops: 1685
Adding flit 3556 as NACK at time 150
Reenqueueing errored packet 3905 at time 151
Additional hops: 1696
Adding flit 2760 as NACK at time 151
Reenqueueing errored packet 3553 at time 152
Additional hops: 1702
Adding flit 4162 as NACK at time 152
Reenqueueing errored packet 2540 at time 153
Reenqueueing errored packet 2616 at time 153
Additional hops: 1710
Adding flit 2215 as NACK at time 153
Additional hops: 1716
Adding flit 4224 as NACK at time 153
Additional hops: 1722
Adding flit 3717 as NACK at time 153
Reenqueueing errored packet 3018 at time 154
Reenqueueing errored packet 3536 at time 154
Reenqueueing errored packet 2922 at time 154
Additional hops: 1731
Adding flit 3521 as NACK at time 154
Reenqueueing errored packet 2767 at time 155
Additional hops: 1740
Adding flit 2535 as NACK at time 155
Additional hops: 1750
Adding flit 4500 as NACK at time 155
Reenqueueing errored packet 3210 at time 156
Reenqueueing errored packet 2435 at time 156
Reenqueueing errored packet 3337 at time 156
Additional hops: 1754
Adding flit 5534 as NACK at time 156
Reenqueueing errored packet 3429 at time 157
Reenqueueing errored packet 2319 at time 157
Additional hops: 1757
Adding flit 5535 as NACK at time 157
Additional hops: 1762
Adding flit 3058 as NACK at time 157
Reenqueueing errored packet 4698 at time 158
Reenqueueing errored packet 2467 at time 158
Reenqueueing errored packet 995 at time 158
Reenqueueing errored packet 474 at time 158
Additional hops: 1770
Adding flit 4034 as NACK at time 158
Additional hops: 1777
Adding flit 4673 as NACK at time 158
Reenqueueing errored packet 3012 at time 159
Additional hops: 1785
Adding flit 4161 as NACK at time 159
Additional hops: 1794
Adding flit 3600 as NACK at time 159
Additional hops: 1802
Adding flit 3708 as NACK at time 159
Additional hops: 1812
Adding flit 2619 as NACK at time 159
Additional hops: 1823
Adding flit 3421 as NACK at time 160
Additional hops: 1833
Adding flit 2473 as NACK at time 160
Additional hops: 1839
Adding flit 4989 as NACK at time 160
Reenqueueing errored packet 3172 at time 161
Additional hops: 1849
Adding flit 4112 as NACK at time 161
Additional hops: 1853
Adding flit 4812 as NACK at time 161
Additional hops: 1867
Adding flit 1454 as NACK at time 161
Additional hops: 1877
Adding flit 3136 as NACK at time 161
Reenqueueing errored packet 4137 at time 162
Reenqueueing errored packet 3630 at time 162
Additional hops: 1882
Adding flit 5474 as NACK at time 162
Additional hops: 1887
Adding flit 4823 as NACK at time 162
Additional hops: 1894
Adding flit 3955 as NACK at time 162
Reenqueueing errored packet 3637 at time 163
Reenqueueing errored packet 3032 at time 163
Reenqueueing errored packet 1802 at time 163
Reenqueueing errored packet 2684 at time 163
Reenqueueing errored packet 5535 at time 164
Reenqueueing errored packet 2807 at time 164
Reenqueueing errored packet 3963 at time 164
Additional hops: 1902
Adding flit 4686 as NACK at time 164
Reenqueueing errored packet 5534 at time 165
Reenqueueing errored packet 4162 at time 165
Reenqueueing errored packet 2919 at time 165
Additional hops: 1906
Adding flit 5530 as NACK at time 165
Reenqueueing errored packet 3717 at time 166
Reenqueueing errored packet 4224 at time 166
Reenqueueing errored packet 3750 at time 166
Additional hops: 1914
Adding flit 3989 as NACK at time 166
Additional hops: 1920
Adding flit 4443 as NACK at time 166
Reenqueueing errored packet 3556 at time 167
Reenqueueing errored packet 3590 at time 167
Additional hops: 1928
Adding flit 5451 as NACK at time 167
Additional hops: 1935
Adding flit 5403 as NACK at time 167
Additional hops: 1937
Adding flit 6163 as NACK at time 167
Reenqueueing errored packet 3058 at time 168
Additional hops: 1944
Adding flit 3980 as NACK at time 168
Additional hops: 1952
Adding flit 3903 as NACK at time 168
Additional hops: 1956
Adding flit 5771 as NACK at time 168
Additional hops: 1965
Adding flit 3762 as NACK at time 168
Reenqueueing errored packet 3379 at time 169
Additional hops: 1970
Adding flit 4737 as NACK at time 169
Additional hops: 1981
Adding flit 4208 as NACK at time 169
Additional hops: 1993
Adding flit 2884 as NACK at time 169
Reenqueueing errored packet 4812 at time 170
Reenqueueing errored packet 2215 at time 170
Reenqueueing errored packet 2602 at time 170
Additional hops: 1999
Adding flit 4556 as NACK at time 170
Additional hops: 2006
Adding flit 5353 as NACK at time 170
Additional hops: 2012
Adding flit 2768 as NACK at time 171
Additional hops: 2018
Adding flit 4817 as NACK at time 171
Reenqueueing errored packet 6163 at time 172
Additional hops: 2026
Adding flit 4652 as NACK at time 172
Reenqueueing errored packet 4823 at time 173
Reenqueueing errored packet 5474 at time 173
Reenqueueing errored packet 4989 at time 173
Reenqueueing errored packet 4673 at time 173
Reenqueueing errored packet 3521 at time 173
Additional hops: 2033
Adding flit 4258 as NACK at time 173
Additional hops: 2041
Adding flit 3958 as NACK at time 173
Additional hops: 2046
Adding flit 5226 as NACK at time 173
Additional hops: 2050
Adding flit 6098 as NACK at time 173
Reenqueueing errored packet 5530 at time 174
Reenqueueing errored packet 2535 at time 174
Reenqueueing errored packet 2760 at time 174
Additional hops: 2058
Adding flit 4754 as NACK at time 174
Additional hops: 2067
Adding flit 4401 as NACK at time 174
Reenqueueing errored packet 4034 at time 175
Additional hops: 2073
Adding flit 4641 as NACK at time 175
Reenqueueing errored packet 3708 at time 176
Reenqueueing errored packet 4161 at time 176
Reenqueueing errored packet 4500 at time 176
Additional hops: 2085
Adding flit 3178 as NACK at time 176
Additional hops: 2094
Adding flit 4032 as NACK at time 176
Additional hops: 2103
Adding flit 2618 as NACK at time 176
Additional hops: 2113
Adding flit 3843 as NACK at time 176
Reenqueueing errored packet 5771 at time 177
Reenqueueing errored packet 3955 at time 177
Additional hops: 2117
Adding flit 5397 as NACK at time 177
Additional hops: 2123
Adding flit 5300 as NACK at time 177
Reenqueueing errored packet 3600 at time 178
Additional hops: 2134
Adding flit 3266 as NACK at time 178
Additional hops: 2138
Adding flit 5901 as NACK at time 178
Additional hops: 2149
Adding flit 3124 as NACK at time 178
Reenqueueing errored packet 4443 at time 179
Additional hops: 2151
Adding flit 6284 as NACK at time 179
Additional hops: 2157
Adding flit 5736 as NACK at time 179
Reenqueueing errored packet 4737 at time 180
Reenqueueing errored packet 2619 at time 180
Additional hops: 2165
Adding flit 3965 as NACK at time 180
Reenqueueing errored packet 4686 at time 181
Reenqueueing errored packet 2473 at time 181
Additional hops: 2172
Adding flit 4534 as NACK at time 181
Additional hops: 2177
Adding flit 6254 as NACK at time 181
Additional hops: 2187
Adding flit 3658 as NACK at time 181
Reenqueueing errored packet 6098 at time 182
Reenqueueing errored packet 5403 at time 182
Reenqueueing errored packet 3136 at time 182
Reenqueueing errored packet 4112 at time 182
Additional hops: 2199
Adding flit 4423 as NACK at time 182
Additional hops: 2207
Adding flit 4234 as NACK at time 182
Additional hops: 2214
Adding flit 4813 as NACK at time 182
Additional hops: 2222
Adding flit 5058 as NACK at time 182
Additional hops: 2228
Adding flit 5378 as NACK at time 182
Reenqueueing errored packet 4556 at time 183
Reenqueueing errored packet 3980 at time 183
Reenqueueing errored packet 3989 at time 183
Reenqueueing errored packet 3421 at time 183
Additional hops: 2238
Adding flit 3382 as NACK at time 183
Additional hops: 2242
Adding flit 5521 as NACK at time 183
Additional hops: 2247
Adding flit 5508 as NACK at time 183
Additional hops: 2257
Adding flit 3469 as NACK at time 183
Reenqueueing errored packet 6284 at time 184
Reenqueueing errored packet 5226 at time 184
Reenqueueing errored packet 4817 at time 184
Reenqueueing errored packet 2768 at time 184
Reenqueueing errored packet 5451 at time 184
Additional hops: 2260
Adding flit 5595 as NACK at time 184
Reenqueueing errored packet 5353 at time 185
Reenqueueing errored packet 3903 at time 185
Additional hops: 2268
Adding flit 4295 as NACK at time 185
Reenqueueing errored packet 5397 at time 186
Additional hops: 2278
Adding flit 3996 as NACK at time 186
Additional hops: 2284
Adding flit 4984 as NACK at time 186
Reenqueueing errored packet 5901 at time 187
Reenqueueing errored packet 3762 at time 187
Additional hops: 2296
Adding flit 1447 as NACK at time 187
Additional hops: 2300
Adding flit 5857 as NACK at time 187
Reenqueueing errored packet 4641 at time 188
Reenqueueing errored packet 4258 at time 188
Additional hops: 2305
Adding flit 5507 as NACK at time 188
Reenqueueing errored packet 4652 at time 189
Reenqueueing errored packet 5300 at time 190
Reenqueueing errored packet 3958 at time 190
Reenqueueing errored packet 1454 at time 190
Additional hops: 2315
Adding flit 4268 as NACK at time 190
Reenqueueing errored packet 5595 at time 191
Reenqueueing errored packet 4754 at time 191
Reenqueueing errored packet 5521 at time 192
Reenqueueing errored packet 6254 at time 192
Reenqueueing errored packet 5736 at time 192
Reenqueueing errored packet 4208 at time 192
Additional hops: 2325
Adding flit 3840 as NACK at time 192
Reenqueueing errored packet 4401 at time 193
Additional hops: 2335
Adding flit 4564 as NACK at time 193
Additional hops: 2345
Adding flit 3091 as NACK at time 193
Reenqueueing errored packet 5508 at time 194
Reenqueueing errored packet 2884 at time 194
Additional hops: 2353
Adding flit 5594 as NACK at time 194
Additional hops: 2358
Adding flit 5879 as NACK at time 194
Reenqueueing errored packet 5378 at time 195
Reenqueueing errored packet 2618 at time 195
Reenqueueing errored packet 4032 at time 195
Additional hops: 2363
Adding flit 6708 as NACK at time 195
Additional hops: 2367
Adding flit 6671 as NACK at time 195
Additional hops: 2369
Adding flit 7246 as NACK at time 195
Reenqueueing errored packet 5857 at time 196
Reenqueueing errored packet 4534 at time 196
Additional hops: 2377
Adding flit 4124 as NACK at time 196
Additional hops: 2385
Adding flit 4183 as NACK at time 196
Reenqueueing errored packet 4813 at time 197
Reenqueueing errored packet 3843 at time 197
Additional hops: 2387
Adding flit 7327 as NACK at time 197
Additional hops: 2391
Adding flit 5712 as NACK at time 197
Additional hops: 2400
Adding flit 5437 as NACK at time 198
Additional hops: 2409
Adding flit 3884 as NACK at time 198
Reenqueueing errored packet 5507 at time 199
Reenqueueing errored packet 5058 at time 199
Reenqueueing errored packet 4234 at time 199
Additional hops: 2416
Adding flit 4878 as NACK at time 199
Additional hops: 2424
Adding flit 5102 as NACK at time 199
Reenqueueing errored packet 7246 at time 200
Additional hops: 2430
Adding flit 5025 as NACK at time 200
Additional hops: 2434
Adding flit 6718 as NACK at time 200
Reenqueueing errored packet 3124 at time 201
Reenqueueing errored packet 3266 at time 201
Reenqueueing errored packet 3178 at time 201
Additional hops: 2444
Adding flit 3878 as NACK at time 201
Reenqueueing errored packet 7327 at time 202
Reenqueueing errored packet 4295 at time 202
Reenqueueing errored packet 3658 at time 202
Additional hops: 2453
Adding flit 4599 as NACK at time 202
Additional hops: 2461
Adding flit 5461 as NACK at time 202
Additional hops: 2472
Adding flit 3377 as NACK at time 203
Additional hops: 2482
Adding flit 4427 as NACK at time 203
Additional hops: 2487
Adding flit 6241 as NACK at time 203
Reenqueueing errored packet 6671 at time 204
Reenqueueing errored packet 3469 at time 204
Reenqueueing errored packet 3382 at time 204
Additional hops: 2497
Adding flit 4629 as NACK at time 204
Additional hops: 2506
Adding flit 3927 as NACK at time 204
Additional hops: 2519
Adding flit 3966 as NACK at time 204
Reenqueueing errored packet 5879 at time 205
Additional hops: 2525
Adding flit 6056 as NACK at time 205
Additional hops: 2530
Adding flit 5810 as NACK at time 205
Reenqueueing errored packet 5712 at time 206
Reenqueueing errored packet 6708 at time 206
Additional hops: 2535
Adding flit 6305 as NACK at time 206
Additional hops: 2543
Adding flit 4840 as NACK at time 206
Reenqueueing errored packet 3996 at time 207
Reenqueueing errored packet 4423 at time 207
Additional hops: 2561
Adding flit 2449 as NACK at time 207
Additional hops: 2568
Adding flit 5636 as NACK at time 208
Additional hops: 2570
Adding flit 7072 as NACK at time 208
Additional hops: 2574
Adding flit 7246 as NACK at time 208
Reenqueueing errored packet 6718 at time 209
Additional hops: 2576
Adding flit 7731 as NACK at time 209
Additional hops: 2586
Adding flit 5369 as NACK at time 209
Additional hops: 2593
Adding flit 4997 as NACK at time 209
Additional hops: 2594
Adding flit 7907 as NACK at time 210
Additional hops: 2596
Adding flit 7612 as NACK at time 210
Additional hops: 2602
Adding flit 6348 as NACK at time 210
Additional hops: 2606
Adding flit 7527 as NACK at time 210
Additional hops: 2620
Adding flit 2883 as NACK at time 210
Reenqueueing errored packet 5594 at time 211
Reenqueueing errored packet 4268 at time 211
Additional hops: 2629
Adding flit 4887 as NACK at time 211
Additional hops: 2632
Adding flit 7087 as NACK at time 211
Additional hops: 2635
Adding flit 7636 as NACK at time 211
Additional hops: 2641
Adding flit 6346 as NACK at time 211
Reenqueueing errored packet 1447 at time 212
Additional hops: 2657
Adding flit 2900 as NACK at time 212
Reenqueueing errored packet 7907 at time 213
Reenqueueing errored packet 7072 at time 213
Reenqueueing errored packet 5025 at time 213
Reenqueueing errored packet 4183 at time 213
Reenqueueing errored packet 4124 at time 213
Reenqueueing errored packet 3840 at time 213
Additional hops: 2664
Adding flit 4833 as NACK at time 213
Reenqueueing errored packet 7731 at time 214
Reenqueueing errored packet 6241 at time 214
Reenqueueing errored packet 4878 at time 214
Reenqueueing errored packet 3091 at time 214
Reenqueueing errored packet 4564 at time 214
Reenqueueing errored packet 7612 at time 215
Additional hops: 2674
Adding flit 6029 as NACK at time 215
Additional hops: 2680
Adding flit 5488 as NACK at time 215
Additional hops: 2686
Adding flit 5468 as NACK at time 215
Additional hops: 2688
Adding flit 8004 as NACK at time 215
Additional hops: 2696
Adding flit 6266 as NACK at time 215
Reenqueueing errored packet 5810 at time 216
Additional hops: 2709
Adding flit 4886 as NACK at time 216
Additional hops: 2716
Adding flit 5995 as NACK at time 216
Reenqueueing errored packet 7246 at time 217
Reenqueueing errored packet 6305 at time 217
Reenqueueing errored packet 3884 at time 217
Reenqueueing errored packet 5437 at time 217
Additional hops: 2724
Adding flit 6249 as NACK at time 217
Additional hops: 2738
Adding flit 3088 as NACK at time 217
Reenqueueing errored packet 7636 at time 218
Reenqueueing errored packet 7087 at time 218
Reenqueueing errored packet 6056 at time 218
Additional hops: 2746
Adding flit 4933 as NACK at time 218
Additional hops: 2752
Adding flit 7271 as NACK at time 218
Reenqueueing errored packet 7527 at time 219
Reenqueueing errored packet 5461 at time 219
Reenqueueing errored packet 8004 at time 220
Reenqueueing errored packet 4599 at time 221
Additional hops: 2758
Adding flit 7673 as NACK at time 221
Additional hops: 2765
Adding flit 5059 as NACK at time 221
Reenqueueing errored packet 3878 at time 222
Additional hops: 2771
Adding flit 5831 as NACK at time 222
Additional hops: 2782
Adding flit 4040 as NACK at time 222
Additional hops: 2787
Adding flit 7312 as NACK at time 222
Additional hops: 2798
Adding flit 4553 as NACK at time 222
Additional hops: 2803
Adding flit 7620 as NACK at time 222
Reenqueueing errored packet 6348 at time 223
Reenqueueing errored packet 5636 at time 223
Reenqueueing errored packet 4840 at time 223
Reenqueueing errored packet 3927 at time 223
Additional hops: 2812
Adding flit 5868 as NACK at time 223
Reenqueueing errored packet 6346 at time 224
Reenqueueing errored packet 4997 at time 224
Reenqueueing errored packet 4427 at time 224
Additional hops: 2819
Adding flit 5702 as NACK at time 224
Additional hops: 2833
Adding flit 3536 as NACK at time 224
Additional hops: 2839
Adding flit 7419 as NACK at time 224
Additional hops: 2846
Adding flit 6411 as NACK at time 224
Additional hops: 2852
Adding flit 5624 as NACK at time 224
Additional hops: 2856
Adding flit 8055 as NACK at time 224
Reenqueueing errored packet 4629 at time 225
Additional hops: 2867
Adding flit 4426 as NACK at time 225
Additional hops: 2868
Adding flit 8474 as NACK at time 225
Additional hops: 2876
Adding flit 5443 as NACK at time 225
Reenqueueing errored packet 3377 at time 226
Additional hops: 2882
Adding flit 6217 as NACK at time 226
Additional hops: 2888
Adding flit 5694 as NACK at time 226
Additional hops: 2897
Adding flit 7543 as NACK at time 227
Additional hops: 2902
Adding flit 6472 as NACK at time 227
Additional hops: 2908
Adding flit 5440 as NACK at time 227
Reenqueueing errored packet 8474 at time 228
Reenqueueing errored packet 5468 at time 228
Reenqueueing errored packet 5488 at time 228
Reenqueueing errored packet 4833 at time 228
Additional hops: 2928
Adding flit 1757 as NACK at time 228
Additional hops: 2932
Adding flit 7159 as NACK at time 228
Additional hops: 2941
Adding flit 5657 as NACK at time 228
Additional hops: 2949
Adding flit 4528 as NACK at time 229
Additional hops: 2961
Adding flit 3720 as NACK at time 229
Additional hops: 2965
Adding flit 8201 as NACK at time 229
Reenqueueing errored packet 4887 at time 230
Reenqueueing errored packet 5369 at time 230
Additional hops: 2972
Adding flit 5593 as NACK at time 230
Additional hops: 2976
Adding flit 6570 as NACK at time 230
Additional hops: 2983
Adding flit 7314 as NACK at time 230
Reenqueueing errored packet 7271 at time 231
Reenqueueing errored packet 5995 at time 231
Reenqueueing errored packet 3966 at time 231
Additional hops: 2991
Adding flit 6480 as NACK at time 231
Additional hops: 2996
Adding flit 6934 as NACK at time 231
Reenqueueing errored packet 6266 at time 232
Additional hops: 3004
Adding flit 4780 as NACK at time 232
Additional hops: 3015
Adding flit 6303 as NACK at time 232
Reenqueueing errored packet 8055 at time 233
Reenqueueing errored packet 7620 at time 233
Reenqueueing errored packet 7312 at time 233
Additional hops: 3019
Adding flit 7924 as NACK at time 233
Additional hops: 3022
Adding flit 8473 as NACK at time 233
Reenqueueing errored packet 7673 at time 234
Reenqueueing errored packet 6249 at time 234
Additional hops: 3032
Adding flit 6344 as NACK at time 234
Reenqueueing errored packet 5831 at time 235
Reenqueueing errored packet 4933 at time 235
Additional hops: 3039
Adding flit 5656 as NACK at time 235
Additional hops: 3044
Adding flit 6976 as NACK at time 235
Additional hops: 3051
Adding flit 6358 as NACK at time 235
Additional hops: 3063
Adding flit 5211 as NACK at time 235
Additional hops: 3074
Adding flit 5454 as NACK at time 235
Reenqueueing errored packet 5059 at time 236
Reenqueueing errored packet 6029 at time 236
Additional hops: 3077
Adding flit 7403 as NACK at time 236
Additional hops: 3084
Adding flit 6698 as NACK at time 236
Reenqueueing errored packet 7159 at time 237
Reenqueueing errored packet 5624 at time 237
Reenqueueing errored packet 7419 at time 237
Additional hops: 3089
Adding flit 7627 as NACK at time 237
Additional hops: 3091
Adding flit 8774 as NACK at time 237
Additional hops: 3099
Adding flit 5919 as NACK at time 237
Additional hops: 3109
Adding flit 4052 as NACK at time 237
Additional hops: 3118
Adding flit 6974 as NACK at time 237
Reenqueueing errored packet 8201 at time 238
Reenqueueing errored packet 6472 at time 238
Additional hops: 3127
Adding flit 5332 as NACK at time 238
Additional hops: 3138
Adding flit 5568 as NACK at time 238
Reenqueueing errored packet 6570 at time 239
Reenqueueing errored packet 5694 at time 239
Reenqueueing errored packet 6217 at time 239
Reenqueueing errored packet 5702 at time 239
Reenqueueing errored packet 2883 at time 239
Additional hops: 3148
Adding flit 4523 as NACK at time 239
Reenqueueing errored packet 8473 at time 240
Reenqueueing errored packet 5440 at time 240
Additional hops: 3155
Adding flit 6032 as NACK at time 240
Additional hops: 3159
Adding flit 8629 as NACK at time 240
Reenqueueing errored packet 8774 at time 242
Reenqueueing errored packet 7924 at time 242
Reenqueueing errored packet 6934 at time 242
Reenqueueing errored packet 5443 at time 242
Reenqueueing errored packet 5868 at time 242
Additional hops: 3165
Adding flit 6433 as NACK at time 242
Reenqueueing errored packet 7403 at time 243
Reenqueueing errored packet 4886 at time 243
Additional hops: 3172
Adding flit 5659 as NACK at time 243
Reenqueueing errored packet 2449 at time 244
Reenqueueing errored packet 7314 at time 245
Reenqueueing errored packet 5593 at time 245
Reenqueueing errored packet 4553 at time 245
Reenqueueing errored packet 4040 at time 245
Reenqueueing errored packet 2900 at time 245
Additional hops: 3176
Adding flit 7352 as NACK at time 245
Additional hops: 3183
Adding flit 6581 as NACK at time 245
Additional hops: 3188
Adding flit 7238 as NACK at time 245
Reenqueueing errored packet 6976 at time 246
Reenqueueing errored packet 4528 at time 246
Reenqueueing errored packet 7543 at time 246
Reenqueueing errored packet 3088 at time 246
Additional hops: 3192
Adding flit 8566 as NACK at time 246
Additional hops: 3210
Adding flit 995 as NACK at time 246
Reenqueueing errored packet 5657 at time 247
Additional hops: 3221
Adding flit 5560 as NACK at time 247
Reenqueueing errored packet 7627 at time 248
Reenqueueing errored packet 6480 at time 248
Reenqueueing errored packet 4426 at time 248
Additional hops: 3225
Adding flit 6042 as NACK at time 248
Additional hops: 3230
Adding flit 8718 as NACK at time 248
Reenqueueing errored packet 8629 at time 249
Reenqueueing errored packet 4780 at time 249
Additional hops: 3232
Adding flit 9112 as NACK at time 249
Reenqueueing errored packet 6358 at time 250
Reenqueueing errored packet 5656 at time 250
Additional hops: 3238
Adding flit 7928 as NACK at time 250
Additional hops: 3247
Adding flit 5287 as NACK at time 250
Reenqueueing errored packet 6698 at time 251
Additional hops: 3256
Adding flit 6294 as NACK at time 251
Additional hops: 3269
Adding flit 5237 as NACK at time 251
Additional hops: 3277
Adding flit 6931 as NACK at time 251
Additional hops: 3287
Adding flit 5915 as NACK at time 252
Additional hops: 3297
Adding flit 6321 as NACK at time 252
Additional hops: 3305
Adding flit 5749 as NACK at time 252
Reenqueueing errored packet 3536 at time 253
Additional hops: 3312
Adding flit 7852 as NACK at time 253
Additional hops: 3315
Adding flit 8286 as NACK at time 253
Additional hops: 3323
Adding flit 5064 as NACK at time 253
Reenqueueing errored packet 9112 at time 254
Reenqueueing errored packet 7352 at time 254
Reenqueueing errored packet 5919 at time 254
Reenqueueing errored packet 3720 at time 254
Additional hops: 3326
Adding flit 8100 as NACK at time 254
Reenqueueing errored packet 8566 at time 255
Reenqueueing errored packet 6433 at time 255
Reenqueueing errored packet 6032 at time 255
Reenqueueing errored packet 6344 at time 255
Reenqueueing errored packet 6303 at time 255
Additional hops: 3328
Adding flit 9003 as NACK at time 255
Additional hops: 3329
Adding flit 9604 as NACK at time 255
Reenqueueing errored packet 7238 at time 256
Reenqueueing errored packet 6974 at time 256
Additional hops: 3343
Adding flit 3210 as NACK at time 256
Additional hops: 3352
Adding flit 6122 as NACK at time 256
Additional hops: 3361
Adding flit 5914 as NACK at time 256
Additional hops: 3370
Adding flit 7906 as NACK at time 256
Additional hops: 3381
Adding flit 4323 as NACK at time 256
Additional hops: 3401
Adding flit 2540 as NACK at time 256
Additional hops: 3412
Adding flit 6361 as NACK at time 256
Reenqueueing errored packet 6042 at time 257
Reenqueueing errored packet 5332 at time 257
Additional hops: 3416
Adding flit 8894 as NACK at time 257
Additional hops: 3425
Adding flit 6856 as NACK at time 257
Additional hops: 3436
Adding flit 4172 as NACK at time 257
Additional hops: 3442
Adding flit 6579 as NACK at time 257
Reenqueueing errored packet 9604 at time 258
Reenqueueing errored packet 5659 at time 258
Reenqueueing errored packet 4052 at time 258
Reenqueueing errored packet 5454 at time 258
Additional hops: 3445
Adding flit 8518 as NACK at time 258
Reenqueueing errored packet 8718 at time 259
Additional hops: 3450
Adding flit 6573 as NACK at time 259
Additional hops: 3457
Adding flit 7315 as NACK at time 259
Reenqueueing errored packet 9003 at time 260
Reenqueueing errored packet 6581 at time 260
Reenqueueing errored packet 4523 at time 260
Reenqueueing errored packet 5211 at time 260
Additional hops: 3469
Adding flit 3630 as NACK at time 260
Additional hops: 3477
Adding flit 7721 as NACK at time 260
Reenqueueing errored packet 8100 at time 261
Reenqueueing errored packet 5568 at time 261
Additional hops: 3484
Adding flit 8141 as NACK at time 261
Additional hops: 3488
Adding flit 8457 as NACK at time 261
Additional hops: 3495
Adding flit 7911 as NACK at time 261
Additional hops: 3500
Adding flit 7830 as NACK at time 262
Reenqueueing errored packet 7928 at time 263
Additional hops: 3508
Adding flit 5780 as NACK at time 263
Additional hops: 3516
Adding flit 6660 as NACK at time 263
Additional hops: 3524
Adding flit 7234 as NACK at time 263
Additional hops: 3536
Adding flit 5917 as NACK at time 264
Reenqueueing errored packet 8518 at time 265
Additional hops: 3546
Adding flit 7247 as NACK at time 265
Additional hops: 3551
Adding flit 8834 as NACK at time 265
Additional hops: 3556
Adding flit 5660 as NACK at time 265
Additional hops: 3560
Adding flit 9114 as NACK at time 265
Additional hops: 3569
Adding flit 7647 as NACK at time 265
Additional hops: 3574
Adding flit 8742 as NACK at time 265
Reenqueueing errored packet 8894 at time 266
Additional hops: 3588
Adding flit 5677 as NACK at time 266
Additional hops: 3592
Adding flit 7950 as NACK at time 266
Additional hops: 3593
Adding flit 10053 as NACK at time 266
Additional hops: 3599
Adding flit 6451 as NACK at time 267
Reenqueueing errored packet 7852 at time 268
Reenqueueing errored packet 6931 at time 268
Reenqueueing errored packet 10053 at time 269
Reenqueueing errored packet 5749 at time 269
Reenqueueing errored packet 5287 at time 269
Reenqueueing errored packet 8457 at time 270
Reenqueueing errored packet 6573 at time 270
Reenqueueing errored packet 6579 at time 270
Reenqueueing errored packet 5064 at time 270
Reenqueueing errored packet 6294 at time 270
Reenqueueing errored packet 5560 at time 270
Additional hops: 3601
Adding flit 10070 as NACK at time 270
Additional hops: 3619
Adding flit 2807 as NACK at time 271
Additional hops: 3626
Adding flit 7085 as NACK at time 272
Reenqueueing errored packet 7830 at time 273
Reenqueueing errored packet 6321 at time 273
Reenqueueing errored packet 5915 at time 273
Additional hops: 3634
Adding flit 7441 as NACK at time 273
Reenqueueing errored packet 9114 at time 274
Reenqueueing errored packet 7315 at time 274
Reenqueueing errored packet 10070 at time 275
Reenqueueing errored packet 7950 at time 275
Reenqueueing errored packet 7906 at time 275
Reenqueueing errored packet 5914 at time 275
Reenqueueing errored packet 6122 at time 275
Reenqueueing errored packet 8742 at time 276
Reenqueueing errored packet 5660 at time 276
Reenqueueing errored packet 8834 at time 276
Reenqueueing errored packet 7911 at time 276
Reenqueueing errored packet 8141 at time 276
Reenqueueing errored packet 6856 at time 276
Additional hops: 3643
Adding flit 8332 as NACK at time 276
Additional hops: 3647
Adding flit 9242 as NACK at time 276
Additional hops: 3655
Adding flit 8263 as NACK at time 276
Reenqueueing errored packet 7721 at time 277
Additional hops: 3664
Adding flit 8075 as NACK at time 277
Reenqueueing errored packet 5237 at time 278
Additional hops: 3674
Adding flit 6259 as NACK at time 278
Reenqueueing errored packet 6361 at time 279
Reenqueueing errored packet 4323 at time 279
Additional hops: 3682
Adding flit 6607 as NACK at time 279
Additional hops: 3689
Adding flit 7973 as NACK at time 279
Additional hops: 3697
Adding flit 7810 as NACK at time 279
Reenqueueing errored packet 6451 at time 280
Reenqueueing errored packet 7234 at time 280
Reenqueueing errored packet 6660 at time 280
Reenqueueing errored packet 5780 at time 280
Reenqueueing errored packet 4172 at time 280
Additional hops: 3707
Adding flit 5989 as NACK at time 280
Additional hops: 3719
Adding flit 4641 as NACK at time 280
Additional hops: 3728
Adding flit 5339 as NACK at time 280
Additional hops: 3738
Adding flit 6233 as NACK at time 281
Additional hops: 3745
Adding flit 8008 as NACK at time 282
Additional hops: 3748
Adding flit 10098 as NACK at time 282
Reenqueueing errored packet 995 at time 283
Additional hops: 3754
Adding flit 8592 as NACK at time 283
Additional hops: 3760
Adding flit 7443 as NACK at time 283
Additional hops: 3767
Adding flit 8681 as NACK at time 283
Additional hops: 3771
Adding flit 10212 as NACK at time 283
Reenqueueing errored packet 7647 at time 284
Additional hops: 3776
Adding flit 8276 as NACK at time 284
Additional hops: 3781
Adding flit 8864 as NACK at time 284
Reenqueueing errored packet 9242 at time 285
Reenqueueing errored packet 3630 at time 285
Reenqueueing errored packet 3210 at time 285
Additional hops: 3788
Adding flit 8045 as NACK at time 285
Reenqueueing errored packet 7247 at time 286
Additional hops: 3797
Adding flit 9170 as NACK at time 286
Additional hops: 3801
Adding flit 9022 as NACK at time 286
Reenqueueing errored packet 7085 at time 287
Additional hops: 3805
Adding flit 8428 as NACK at time 287
Additional hops: 3816
Adding flit 5757 as NACK at time 287
Additional hops: 3819
Adding flit 9513 as NACK at time 287
Additional hops: 3826
Adding flit 8132 as NACK at time 288
Additional hops: 3835
Adding flit 7608 as NACK at time 288
Additional hops: 3844
Adding flit 5650 as NACK at time 288
Reenqueueing errored packet 10098 at time 289
Reenqueueing errored packet 5917 at time 289
Additional hops: 3852
Adding flit 7844 as NACK at time 289
Additional hops: 3860
Adding flit 7515 as NACK at time 289
Additional hops: 3867
Adding flit 8997 as NACK at time 289
Reenqueueing errored packet 7441 at time 290
Additional hops: 3871
Adding flit 9634 as NACK at time 290
Additional hops: 3877
Adding flit 9842 as NACK at time 290
Additional hops: 3885
Adding flit 7894 as NACK at time 290
Additional hops: 3890
Adding flit 9395 as NACK at time 291
Additional hops: 3900
Adding flit 7040 as NACK at time 291
Additional hops: 3904
Adding flit 8645 as NACK at time 291
Additional hops: 3908
Adding flit 10614 as NACK at time 291
Reenqueueing errored packet 10212 at time 292
Reenqueueing errored packet 8263 at time 293
Additional hops: 3915
Adding flit 8134 as NACK at time 293
Reenqueueing errored packet 9513 at time 294
Reenqueueing errored packet 7973 at time 294
Additional hops: 3919
Adding flit 10239 as NACK at time 294
Reenqueueing errored packet 9022 at time 295
Reenqueueing errored packet 8864 at time 295
Reenqueueing errored packet 8276 at time 295
Reenqueueing errored packet 8332 at time 295
Reenqueueing errored packet 5677 at time 295
Additional hops: 3937
Adding flit 7543 as NACK at time 295
Additional hops: 3945
Adding flit 8894 as NACK at time 295
Additional hops: 3952
Adding flit 8219 as NACK at time 295
Additional hops: 3974
Adding flit 1291 as NACK at time 295
Reenqueueing errored packet 8428 at time 296
Reenqueueing errored packet 7443 at time 296
Reenqueueing errored packet 8592 at time 296
Reenqueueing errored packet 7810 at time 296
Reenqueueing errored packet 6607 at time 296
Reenqueueing errored packet 8075 at time 296
Reenqueueing errored packet 8008 at time 297
Reenqueueing errored packet 2540 at time 297
Additional hops: 3985
Adding flit 6331 as NACK at time 297
Reenqueueing errored packet 8681 at time 298
Additional hops: 3995
Adding flit 5671 as NACK at time 298
Reenqueueing errored packet 9634 at time 299
Reenqueueing errored packet 5339 at time 299
Reenqueueing errored packet 6259 at time 299
Additional hops: 3999
Adding flit 10839 as NACK at time 299
Additional hops: 4001
Adding flit 11163 as NACK at time 299
Additional hops: 4005
Adding flit 10779 as NACK at time 299
Additional hops: 4012
Adding flit 9318 as NACK at time 299
Reenqueueing errored packet 10614 at time 300
Reenqueueing errored packet 8645 at time 300
Reenqueueing errored packet 8045 at time 300
Additional hops: 4014
Adding flit 11229 as NACK at time 300
Additional hops: 4019
Adding flit 9173 as NACK at time 300
Additional hops: 4023
Adding flit 8173 as NACK at time 300
Additional hops: 4029
Adding flit 8289 as NACK at time 300
Reenqueueing errored packet 5989 at time 301
Additional hops: 4037
Adding flit 7012 as NACK at time 301
Additional hops: 4045
Adding flit 8182 as NACK at time 301
Additional hops: 4048
Adding flit 10696 as NACK at time 301
Reenqueueing errored packet 9395 at time 302
Reenqueueing errored packet 6233 at time 302
Additional hops: 4057
Adding flit 8057 as NACK at time 302
Additional hops: 4071
Adding flit 4878 as NACK at time 302
Reenqueueing errored packet 10239 at time 303
Reenqueueing errored packet 9842 at time 303
Reenqueueing errored packet 8132 at time 303
Additional hops: 4077
Adding flit 10594 as NACK at time 303
Additional hops: 4085
Adding flit 7805 as NACK at time 303
Reenqueueing errored packet 11163 at time 304
Reenqueueing errored packet 8997 at time 304
Additional hops: 4094
Adding flit 7710 as NACK at time 304
Reenqueueing errored packet 11229 at time 305
Reenqueueing errored packet 9170 at time 305
Reenqueueing errored packet 4641 at time 305
Reenqueueing errored packet 7515 at time 306
Reenqueueing errored packet 7844 at time 306
Additional hops: 4104
Adding flit 6419 as NACK at time 306
Additional hops: 4112
Adding flit 8703 as NACK at time 306
Additional hops: 4116
Adding flit 11108 as NACK at time 306
Additional hops: 4122
Adding flit 10394 as NACK at time 306
Reenqueueing errored packet 7894 at time 307
Reenqueueing errored packet 5650 at time 307
Reenqueueing errored packet 7608 at time 307
Additional hops: 4129
Adding flit 9254 as NACK at time 307
Additional hops: 4136
Adding flit 8404 as NACK at time 307
Reenqueueing errored packet 10696 at time 308
Reenqueueing errored packet 10779 at time 308
Reenqueueing errored packet 10839 at time 308
Reenqueueing errored packet 8134 at time 308
Reenqueueing errored packet 2807 at time 308
Reenqueueing errored packet 8173 at time 309
Additional hops: 4145
Adding flit 8590 as NACK at time 309
Additional hops: 4150
Adding flit 9977 as NACK at time 309
Reenqueueing errored packet 8219 at time 310
Reenqueueing errored packet 5757 at time 310
Reenqueueing errored packet 9173 at time 311
Reenqueueing errored packet 8894 at time 312
Reenqueueing errored packet 7040 at time 312
Additional hops: 4157
Adding flit 7588 as NACK at time 312
Reenqueueing errored packet 8289 at time 313
Reenqueueing errored packet 9318 at time 314
Additional hops: 4161
Adding flit 10686 as NACK at time 314
Additional hops: 4166
Adding flit 11097 as NACK at time 314
Reenqueueing errored packet 11108 at time 315
Reenqueueing errored packet 10594 at time 316
Additional hops: 4169
Adding flit 10319 as NACK at time 316
Additional hops: 4174
Adding flit 10210 as NACK at time 316
Additional hops: 4180
Adding flit 10565 as NACK at time 316
Additional hops: 4193
Adding flit 7173 as NACK at time 316
Additional hops: 4197
Adding flit 11472 as NACK at time 317
Reenqueueing errored packet 8182 at time 318
Reenqueueing errored packet 7012 at time 318
Additional hops: 4201
Adding flit 11391 as NACK at time 318
Reenqueueing errored packet 10394 at time 319
Reenqueueing errored packet 5671 at time 319
Additional hops: 4209
Adding flit 7142 as NACK at time 319
Additional hops: 4217
Adding flit 9539 as NACK at time 319
Reenqueueing errored packet 9977 at time 320
Reenqueueing errored packet 7805 at time 320
Reenqueueing errored packet 6331 at time 320
Additional hops: 4226
Adding flit 7753 as NACK at time 320
Additional hops: 4231
Adding flit 9712 as NACK at time 320
Additional hops: 4240
Adding flit 8442 as NACK at time 320
Additional hops: 4247
Adding flit 10159 as NACK at time 320
Additional hops: 4250
Adding flit 11700 as NACK at time 320
Reenqueueing errored packet 8057 at time 321
Additional hops: 4257
Adding flit 7293 as NACK at time 321
Additional hops: 4261
Adding flit 10397 as NACK at time 321
Additional hops: 4268
Adding flit 10632 as NACK at time 321
Additional hops: 4275
Adding flit 9263 as NACK at time 321
Reenqueueing errored packet 8404 at time 322
Reenqueueing errored packet 9254 at time 322
Additional hops: 4280
Adding flit 11268 as NACK at time 322
Additional hops: 4284
Adding flit 11658 as NACK at time 322
Additional hops: 4292
Adding flit 8585 as NACK at time 322
Additional hops: 4299
Adding flit 9875 as NACK at time 322
Additional hops: 4307
Adding flit 9347 as NACK at time 322
Reenqueueing errored packet 10319 at time 323
Reenqueueing errored packet 10686 at time 323
Reenqueueing errored packet 8703 at time 323
Reenqueueing errored packet 7710 at time 323
Additional hops: 4317
Adding flit 8392 as NACK at time 323
Additional hops: 4327
Adding flit 7359 as NACK at time 324
Additional hops: 4333
Adding flit 9745 as NACK at time 324
Additional hops: 4337
Adding flit 11697 as NACK at time 324
Reenqueueing errored packet 11097 at time 325
Additional hops: 4342
Adding flit 9755 as NACK at time 325
Additional hops: 4347
Adding flit 8914 as NACK at time 325
Additional hops: 4350
Adding flit 10659 as NACK at time 325
Additional hops: 4364
Adding flit 6933 as NACK at time 325
Reenqueueing errored packet 11472 at time 326
Additional hops: 4372
Adding flit 8591 as NACK at time 326
Reenqueueing errored packet 11700 at time 327
Reenqueueing errored packet 11391 at time 327
Reenqueueing errored packet 10210 at time 327
Reenqueueing errored packet 7588 at time 327
Reenqueueing errored packet 6419 at time 327
Additional hops: 4390
Adding flit 7906 as NACK at time 327
Reenqueueing errored packet 8590 at time 328
Additional hops: 4395
Adding flit 9141 as NACK at time 328
Reenqueueing errored packet 10565 at time 329
Additional hops: 4405
Adding flit 6477 as NACK at time 329
Additional hops: 4411
Adding flit 10177 as NACK at time 329
Additional hops: 4418
Adding flit 7276 as NACK at time 329
Additional hops: 4426
Adding flit 7624 as NACK at time 329
Additional hops: 4428
Adding flit 12367 as NACK at time 329
Reenqueueing errored packet 10397 at time 330
Additional hops: 4431
Adding flit 11788 as NACK at time 330
Reenqueueing errored packet 11658 at time 331
Reenqueueing errored packet 9712 at time 331
Reenqueueing errored packet 4878 at time 331
Additional hops: 4439
Adding flit 9163 as NACK at time 331
Additional hops: 4448
Adding flit 9419 as NACK at time 331
Additional hops: 4454
Adding flit 9413 as NACK at time 331
Additional hops: 4456
Adding flit 12198 as NACK at time 331
Additional hops: 4463
Adding flit 9882 as NACK at time 331
Reenqueueing errored packet 10659 at time 332
Reenqueueing errored packet 7543 at time 332
Additional hops: 4468
Adding flit 10059 as NACK at time 332
Additional hops: 4473
Adding flit 11177 as NACK at time 332
Additional hops: 4484
Adding flit 6100 as NACK at time 332
Reenqueueing errored packet 11697 at time 333
Reenqueueing errored packet 11268 at time 333
Additional hops: 4494
Adding flit 7334 as NACK at time 333
Additional hops: 4498
Adding flit 11622 as NACK at time 333
Additional hops: 4506
Adding flit 8558 as NACK at time 333
Reenqueueing errored packet 12367 at time 334
Additional hops: 4515
Adding flit 7194 as NACK at time 334
Additional hops: 4523
Adding flit 10669 as NACK at time 334
Additional hops: 4528
Adding flit 10313 as NACK at time 334
Additional hops: 4531
Adding flit 11703 as NACK at time 334
Additional hops: 4535
Adding flit 12203 as NACK at time 334
Reenqueueing errored packet 10159 at time 335
Additional hops: 4550
Adding flit 7382 as NACK at time 335
Reenqueueing errored packet 12198 at time 336
Reenqueueing errored packet 8914 at time 336
Reenqueueing errored packet 9755 at time 336
Reenqueueing errored packet 9263 at time 336
Reenqueueing errored packet 10632 at time 336
Reenqueueing errored packet 9539 at time 336
Reenqueueing errored packet 7142 at time 336
Additional hops: 4557
Adding flit 10016 as NACK at time 336
Additional hops: 4568
Adding flit 7297 as NACK at time 336
Additional hops: 4580
Adding flit 7723 as NACK at time 336
Reenqueueing errored packet 11788 at time 337
Reenqueueing errored packet 9745 at time 337
Reenqueueing errored packet 9875 at time 337
Additional hops: 4588
Adding flit 10063 as NACK at time 337
Additional hops: 4608
Adding flit 2619 as NACK at time 337
Additional hops: 4617
Adding flit 8130 as NACK at time 338
Additional hops: 4629
Adding flit 6927 as NACK at time 338
Reenqueueing errored packet 9141 at time 339
Reenqueueing errored packet 9347 at time 339
Reenqueueing errored packet 8585 at time 339
Reenqueueing errored packet 8442 at time 339
Reenqueueing errored packet 7753 at time 339
Additional hops: 4637
Adding flit 9831 as NACK at time 339
Additional hops: 4640
Adding flit 12615 as NACK at time 339
Additional hops: 4648
Adding flit 8283 as NACK at time 339
Additional hops: 4651
Adding flit 12144 as NACK at time 339
Additional hops: 4655
Adding flit 12079 as NACK at time 339
Reenqueueing errored packet 1291 at time 340
Additional hops: 4663
Adding flit 9944 as NACK at time 340
Additional hops: 4671
Adding flit 9979 as NACK at time 340
Uncorrectable 3
Additional hops: 4683
Adding flit 6449 as NACK at time 340
Additional hops: 4690
Adding flit 8860 as NACK at time 340
Additional hops: 4697
Adding flit 10561 as NACK at time 340
Additional hops: 4705
Adding flit 8907 as NACK at time 340
Reenqueueing errored packet 11703 at time 341
Additional hops: 4713
Adding flit 8525 as NACK at time 341
Reenqueueing errored packet 11622 at time 342
Reenqueueing errored packet 10177 at time 342
Additional hops: 4716
Adding flit 12720 as NACK at time 342
Additional hops: 4719
Adding flit 12565 as NACK at time 342
Additional hops: 4727
Adding flit 8027 as NACK at time 342
Reenqueueing errored packet 12203 at time 343
Reenqueueing errored packet 11177 at time 343
Reenqueueing errored packet 10059 at time 343
Reenqueueing errored packet 8591 at time 343
Reenqueueing errored packet 7173 at time 343
Additional hops: 4737
Adding flit 7956 as NACK at time 343
Additional hops: 4744
Adding flit 11800 as NACK at time 343
Additional hops: 4752
Adding flit 10839 as NACK at time 343
Reenqueueing errored packet 9413 at time 344
Reenqueueing errored packet 7276 at time 344
Reenqueueing errored packet 8392 at time 344
Additional hops: 4756
Adding flit 8874 as NACK at time 344
Reenqueueing errored packet 10313 at time 345
Reenqueueing errored packet 7359 at time 345
Additional hops: 4767
Adding flit 7822 as NACK at time 345
Additional hops: 4774
Adding flit 7908 as NACK at time 345
Additional hops: 4782
Adding flit 9519 as NACK at time 345
Reenqueueing errored packet 12144 at time 346
Reenqueueing errored packet 12615 at time 346
Reenqueueing errored packet 9882 at time 346
Additional hops: 4787
Adding flit 9734 as NACK at time 346
Additional hops: 4793
Adding flit 9701 as NACK at time 347
Additional hops: 4815
Adding flit 6303 as NACK at time 347
Reenqueueing errored packet 12079 at time 348
Reenqueueing errored packet 9163 at time 348
Additional hops: 4819
Adding flit 12628 as NACK at time 348
Additional hops: 4825
Adding flit 9366 as NACK at time 348
Reenqueueing errored packet 12565 at time 349
Reenqueueing errored packet 12720 at time 349
Additional hops: 4833
Adding flit 7963 as NACK at time 349
Reenqueueing errored packet 8558 at time 350
Reenqueueing errored packet 9419 at time 350
Reenqueueing errored packet 6477 at time 350
Additional hops: 4840
Adding flit 9742 as NACK at time 350
Additional hops: 4848
Adding flit 10797 as NACK at time 350
Additional hops: 4852
Adding flit 10500 as NACK at time 350
Additional hops: 4856
Adding flit 12783 as NACK at time 350
Reenqueueing errored packet 10016 at time 351
Reenqueueing errored packet 10669 at time 351
Additional hops: 4866
Adding flit 9195 as NACK at time 351
Additional hops: 4876
Adding flit 9668 as NACK at time 351
Additional hops: 4896
Adding flit 4268 as NACK at time 352
Reenqueueing errored packet 8874 at time 353
Reenqueueing errored packet 7194 at time 353
Additional hops: 4906
Adding flit 7323 as NACK at time 353
Additional hops: 4914
Adding flit 8878 as NACK at time 353
Reenqueueing errored packet 10063 at time 354
Reenqueueing errored packet 7334 at time 354
Reenqueueing errored packet 6933 at time 354
Additional hops: 4926
Adding flit 10594 as NACK at time 354
Reenqueueing errored packet 10561 at time 355
Reenqueueing errored packet 8860 at time 355
Additional hops: 4934
Adding flit 10626 as NACK at time 355
Additional hops: 4942
Adding flit 9268 as NACK at time 355
Additional hops: 4952
Adding flit 8421 as NACK at time 355
Reenqueueing errored packet 8283 at time 356
Reenqueueing errored packet 9831 at time 356
Additional hops: 4959
Adding flit 10207 as NACK at time 356
Additional hops: 4966
Adding flit 10383 as NACK at time 356
Additional hops: 4990
Adding flit 1802 as NACK at time 356
Reenqueueing errored packet 12628 at time 357
Reenqueueing errored packet 9734 at time 357
Reenqueueing errored packet 8907 at time 357
Reenqueueing errored packet 9979 at time 357
Reenqueueing errored packet 9944 at time 357
Reenqueueing errored packet 8130 at time 357
Additional hops: 4998
Adding flit 10551 as NACK at time 357
Additional hops: 5002
Adding flit 9812 as NACK at time 357
Reenqueueing errored packet 11800 at time 358
Reenqueueing errored packet 8525 at time 358
Additional hops: 5012
Adding flit 9682 as NACK at time 358
Additional hops: 5017
Adding flit 12709 as NACK at time 358
Reenqueueing errored packet 12783 at time 359
Reenqueueing errored packet 10500 at time 359
Reenqueueing errored packet 8027 at time 359
Reenqueueing errored packet 7297 at time 359
Additional hops: 5026
Adding flit 8613 as NACK at time 359
Additional hops: 5032
Adding flit 10040 as NACK at time 359
Additional hops: 5043
Adding flit 7798 as NACK at time 359
Reenqueueing errored packet 9701 at time 360
Reenqueueing errored packet 7908 at time 360
Reenqueueing errored packet 10839 at time 360
Additional hops: 5046
Adding flit 11871 as NACK at time 360
Reenqueueing errored packet 9366 at time 361
Reenqueueing errored packet 7723 at time 361
Reenqueueing errored packet 9519 at time 362
Additional hops: 5048
Adding flit 13615 as NACK at time 362
Additional hops: 5054
Adding flit 9434 as NACK at time 362
Additional hops: 5058
Adding flit 12499 as NACK at time 362
Additional hops: 5063
Adding flit 10589 as NACK at time 362
Reenqueueing errored packet 6927 at time 363
Additional hops: 5068
Adding flit 11726 as NACK at time 363
Reenqueueing errored packet 7956 at time 364
Reenqueueing errored packet 7906 at time 364
Additional hops: 5072
Adding flit 13425 as NACK at time 364
Additional hops: 5077
Adding flit 12773 as NACK at time 364
Reenqueueing errored packet 9742 at time 365
Reenqueueing errored packet 6449 at time 365
Additional hops: 5082
Adding flit 10189 as NACK at time 365
Additional hops: 5102
Adding flit 3382 as NACK at time 365
Additional hops: 5109
Adding flit 8342 as NACK at time 365
Reenqueueing errored packet 9812 at time 366
Reenqueueing errored packet 7963 at time 366
Reenqueueing errored packet 7382 at time 366
Reenqueueing errored packet 13615 at time 367
Reenqueueing errored packet 11871 at time 367
Reenqueueing errored packet 10797 at time 367
Additional hops: 5116
Adding flit 11027 as NACK at time 367
Additional hops: 5122
Adding flit 9752 as NACK at time 367
Reenqueueing errored packet 7822 at time 368
Additional hops: 5134
Adding flit 8534 as NACK at time 368
Additional hops: 5139
Adding flit 10437 as NACK at time 368
Additional hops: 5144
Adding flit 10462 as NACK at time 368
Additional hops: 5148
Adding flit 12247 as NACK at time 368
Additional hops: 5149
Adding flit 13990 as NACK at time 368
Reenqueueing errored packet 12709 at time 369
Additional hops: 5157
Adding flit 12374 as NACK at time 369
Additional hops: 5163
Adding flit 12498 as NACK at time 369
Additional hops: 5168
Adding flit 11809 as NACK at time 369
Reenqueueing errored packet 8878 at time 370
Additional hops: 5182
Adding flit 8223 as NACK at time 370
Reenqueueing errored packet 13990 at time 371
Reenqueueing errored packet 12499 at time 371
Reenqueueing errored packet 10383 at time 371
Reenqueueing errored packet 10207 at time 371
Additional hops: 5193
Adding flit 7797 as NACK at time 371
Additional hops: 5201
Adding flit 11179 as NACK at time 371
Reenqueueing errored packet 10040 at time 372
Reenqueueing errored packet 9268 at time 372
Reenqueueing errored packet 10626 at time 372
Reenqueueing errored packet 9668 at time 372
Reenqueueing errored packet 9195 at time 372
Additional hops: 5210
Adding flit 9113 as NACK at time 372
Additional hops: 5217
Adding flit 12295 as NACK at time 372
Additional hops: 5219
Adding flit 13470 as NACK at time 372
Additional hops: 5227
Adding flit 9373 as NACK at time 372
Additional hops: 5231
Adding flit 11515 as NACK at time 372
Reenqueueing errored packet 13425 at time 373
Reenqueueing errored packet 10589 at time 373
Additional hops: 5239
Adding flit 8262 as NACK at time 373
Additional hops: 5245
Adding flit 8735 as NACK at time 373
Reenqueueing errored packet 11726 at time 374
Reenqueueing errored packet 10551 at time 374
Reenqueueing errored packet 7323 at time 374
Additional hops: 5249
Adding flit 12899 as NACK at time 374
Additional hops: 5260
Adding flit 8513 as NACK at time 374
Reenqueueing errored packet 12773 at time 375
Reenqueueing errored packet 9434 at time 375
Additional hops: 5264
Adding flit 13852 as NACK at time 375
Additional hops: 5269
Adding flit 13121 as NACK at time 375
Reenqueueing errored packet 10189 at time 376
Reenqueueing errored packet 8421 at time 376
Additional hops: 5276
Adding flit 11160 as NACK at time 376
Additional hops: 5285
Adding flit 9849 as NACK at time 376
Reenqueueing errored packet 13470 at time 377
Reenqueueing errored packet 12247 at time 377
Reenqueueing errored packet 8613 at time 378
Reenqueueing errored packet 2619 at time 378
Additional hops: 5289
Adding flit 12451 as NACK at time 378
Reenqueueing errored packet 10462 at time 379
Reenqueueing errored packet 10437 at time 379
Reenqueueing errored packet 9682 at time 379
Reenqueueing errored packet 10594 at time 379
Additional hops: 5297
Adding flit 10892 as NACK at time 379
Additional hops: 5305
Adding flit 11853 as NACK at time 379
Reenqueueing errored packet 11809 at time 380
Reenqueueing errored packet 9752 at time 380
Reenqueueing errored packet 8342 at time 380
Additional hops: 5312
Adding flit 12099 as NACK at time 380
Reenqueueing errored packet 11515 at time 381
Additional hops: 5321
Adding flit 9806 as NACK at time 381
Additional hops: 5323
Adding flit 14373 as NACK at time 381
Reenqueueing errored packet 12498 at time 382
Reenqueueing errored packet 11027 at time 382
Reenqueueing errored packet 7798 at time 382
Additional hops: 5328
Adding flit 11683 as NACK at time 382
Additional hops: 5338
Adding flit 8680 as NACK at time 382
Additional hops: 5347
Adding flit 9495 as NACK at time 382
Additional hops: 5352
Adding flit 12585 as NACK at time 382
Reenqueueing errored packet 12899 at time 383
Additional hops: 5355
Adding flit 13310 as NACK at time 383
Additional hops: 5360
Adding flit 11091 as NACK at time 383
Reenqueueing errored packet 13852 at time 384
Additional hops: 5366
Adding flit 11698 as NACK at time 384
Additional hops: 5371
Adding flit 13162 as NACK at time 384
Additional hops: 5377
Adding flit 11875 as NACK at time 384
Additional hops: 5381
Adding flit 10033 as NACK at time 385
Additional hops: 5390
Adding flit 10802 as NACK at time 385
Reenqueueing errored packet 14373 at time 386
Reenqueueing errored packet 13121 at time 386
Reenqueueing errored packet 8735 at time 386
Reenqueueing errored packet 12374 at time 386
Additional hops: 5397
Adding flit 10387 as NACK at time 386
Additional hops: 5405
Adding flit 11815 as NACK at time 386
Additional hops: 5411
Adding flit 11972 as NACK at time 386
Reenqueueing errored packet 12451 at time 387
Reenqueueing errored packet 12295 at time 387
Additional hops: 5417
Adding flit 12156 as NACK at time 387
Additional hops: 5428
Adding flit 7944 as NACK at time 387
Reenqueueing errored packet 11179 at time 388
Additional hops: 5440
Adding flit 8344 as NACK at time 388
Additional hops: 5451
Adding flit 9056 as NACK at time 388
Additional hops: 5460
Adding flit 10770 as NACK at time 388
Reenqueueing errored packet 9373 at time 389
Reenqueueing errored packet 13310 at time 390
Reenqueueing errored packet 8262 at time 390
Additional hops: 5470
Adding flit 9581 as NACK at time 390
Additional hops: 5481
Adding flit 10651 as NACK at time 390
Reenqueueing errored packet 11160 at time 391
Reenqueueing errored packet 9113 at time 391
Additional hops: 5488
Adding flit 11139 as NACK at time 391
Reenqueueing errored packet 6303 at time 392
Additional hops: 5494
Adding flit 12196 as NACK at time 392
Additional hops: 5500
Adding flit 11936 as NACK at time 392
Additional hops: 5505
Adding flit 9514 as NACK at time 392
Reenqueueing errored packet 12585 at time 393
Reenqueueing errored packet 11683 at time 393
Reenqueueing errored packet 8534 at time 393
Reenqueueing errored packet 4268 at time 393
Additional hops: 5512
Adding flit 10635 as NACK at time 393
Additional hops: 5516
Adding flit 14193 as NACK at time 393
Additional hops: 5530
[...]
Adding flit 327465 as NACK at time 9925
Additional hops: 164764
Adding flit 235519 as NACK at time 9925
Additional hops: 164780
Adding flit 293180 as NACK at time 9925
Additional hops: 164787
Adding flit 325763 as NACK at time 9925
Reenqueueing errored packet 360353 at time 9926
Reenqueueing errored packet 345369 at time 9926
Reenqueueing errored packet 307872 at time 9926
Reenqueueing errored packet 250326 at time 9926
Reenqueueing errored packet 305476 at time 9926
Additional hops: 164797
Adding flit 310485 as NACK at time 9926
Additional hops: 164810
Adding flit 235980 as NACK at time 9926
Additional hops: 164814
Adding flit 343514 as NACK at time 9926
Additional hops: 164817
Adding flit 265131 as NACK at time 9926
Reenqueueing errored packet 302673 at time 9928
Additional hops: 164827
Adding flit 313141 as NACK at time 9928
Additional hops: 164832
Adding flit 344957 as NACK at time 9928
Additional hops: 164844
Adding flit 298901 as NACK at time 9928
Reenqueueing errored packet 341824 at time 9929
Reenqueueing errored packet 298295 at time 9929
Reenqueueing errored packet 315035 at time 9929
Additional hops: 164856
Adding flit 221922 as NACK at time 9929
Reenqueueing errored packet 297901 at time 9930
Additional hops: 164862
Adding flit 334685 as NACK at time 9930
Additional hops: 164869
Adding flit 344078 as NACK at time 9930
Additional hops: 164877
Adding flit 287444 as NACK at time 9930
Additional hops: 164889
Adding flit 219077 as NACK at time 9930
Additional hops: 164898
Adding flit 319336 as NACK at time 9930
Additional hops: 164911
Adding flit 219560 as NACK at time 9930
Additional hops: 164914
Adding flit 358399 as NACK at time 9930
Reenqueueing errored packet 345156 at time 9931
Additional hops: 164923
Adding flit 238244 as NACK at time 9931
Additional hops: 164931
Adding flit 345860 as NACK at time 9931
Reenqueueing errored packet 320270 at time 9932
Reenqueueing errored packet 342987 at time 9932
Reenqueueing errored packet 330838 at time 9932
Additional hops: 164938
Adding flit 327685 as NACK at time 9933
Additional hops: 164943
Adding flit 255750 as NACK at time 9933
Additional hops: 164951
Adding flit 275295 as NACK at time 9933
Reenqueueing errored packet 343554 at time 9934
Reenqueueing errored packet 358958 at time 9934
Reenqueueing errored packet 234776 at time 9934
Additional hops: 164959
Adding flit 308474 as NACK at time 9934
Additional hops: 164966
Adding flit 308773 as NACK at time 9934
Reenqueueing errored packet 343514 at time 9935
Additional hops: 164975
Adding flit 288592 as NACK at time 9935
Additional hops: 164982
Adding flit 243973 as NACK at time 9935
Reenqueueing errored packet 308007 at time 9936
Reenqueueing errored packet 331311 at time 9936
Additional hops: 164991
Adding flit 235652 as NACK at time 9936
Additional hops: 164994
Adding flit 342933 as NACK at time 9936
Additional hops: 165002
Adding flit 332059 as NACK at time 9936
Additional hops: 165014
Adding flit 318119 as NACK at time 9936
Additional hops: 165021
Adding flit 322073 as NACK at time 9936
Reenqueueing errored packet 358399 at time 9937
Reenqueueing errored packet 349056 at time 9937
Additional hops: 165041
Adding flit 261899 as NACK at time 9937
Additional hops: 165046
Adding flit 327131 as NACK at time 9937
Additional hops: 165053
Adding flit 343480 as NACK at time 9938
Additional hops: 165059
Adding flit 246155 as NACK at time 9938
Additional hops: 165066
Adding flit 328419 as NACK at time 9938
Additional hops: 165071
Adding flit 344892 as NACK at time 9938
Additional hops: 165080
Adding flit 236115 as NACK at time 9938
Reenqueueing errored packet 344957 at time 9939
Reenqueueing errored packet 246829 at time 9939
Reenqueueing errored packet 322575 at time 9939
Additional hops: 165082
Adding flit 317015 as NACK at time 9939
Additional hops: 165089
Adding flit 245908 as NACK at time 9939
Reenqueueing errored packet 325763 at time 9940
Reenqueueing errored packet 237417 at time 9940
Additional hops: 165105
Adding flit 254229 as NACK at time 9940
Additional hops: 165113
Adding flit 286664 as NACK at time 9941
Additional hops: 165117
Adding flit 343817 as NACK at time 9941
Additional hops: 165128
Adding flit 298751 as NACK at time 9941
Reenqueueing errored packet 327465 at time 9942
Additional hops: 165137
Adding flit 325663 as NACK at time 9942
Additional hops: 165148
Adding flit 309881 as NACK at time 9942
Additional hops: 165159
Adding flit 227381 as NACK at time 9942
Additional hops: 165162
Adding flit 358037 as NACK at time 9942
Additional hops: 165168
Adding flit 356558 as NACK at time 9942
Additional hops: 165175
Adding flit 345223 as NACK at time 9942
Reenqueueing errored packet 342933 at time 9943
Reenqueueing errored packet 334685 at time 9943
Reenqueueing errored packet 317015 at time 9944
Additional hops: 165181
Adding flit 325819 as NACK at time 9944
Additional hops: 165187
Adding flit 329334 as NACK at time 9944
Additional hops: 165195
Adding flit 252931 as NACK at time 9944
Reenqueueing errored packet 344078 at time 9945
Reenqueueing errored packet 310418 at time 9945
Reenqueueing errored packet 289699 at time 9945
Additional hops: 165202
Adding flit 344708 as NACK at time 9945
Additional hops: 165205
Adding flit 361401 as NACK at time 9945
Additional hops: 165214
Adding flit 241047 as NACK at time 9946
Additional hops: 165220
Adding flit 250527 as NACK at time 9946
Additional hops: 165226
Adding flit 360304 as NACK at time 9946
Additional hops: 165233
Adding flit 320049 as NACK at time 9946
Reenqueueing errored packet 287444 at time 9947
Reenqueueing errored packet 310485 at time 9947
Additional hops: 165241
Adding flit 331888 as NACK at time 9947
Reenqueueing errored packet 327131 at time 9948
Reenqueueing errored packet 327685 at time 9948
Reenqueueing errored packet 345860 at time 9948
Additional hops: 165250
Adding flit 323524 as NACK at time 9948
Reenqueueing errored packet 358037 at time 9949
Reenqueueing errored packet 344892 at time 9949
Reenqueueing errored packet 308773 at time 9949
Reenqueueing errored packet 319336 at time 9949
Reenqueueing errored packet 313141 at time 9949
Additional hops: 165252
Adding flit 361831 as NACK at time 9949
Reenqueueing errored packet 343817 at time 9950
Reenqueueing errored packet 243973 at time 9950
Reenqueueing errored packet 238244 at time 9950
Additional hops: 165265
Adding flit 222348 as NACK at time 9950
Additional hops: 165283
Adding flit 226298 as NACK at time 9950
Reenqueueing errored packet 322073 at time 9951
Reenqueueing errored packet 308474 at time 9951
Additional hops: 165292
Adding flit 253696 as NACK at time 9951
Reenqueueing errored packet 361401 at time 9952
Additional hops: 165301
Adding flit 329340 as NACK at time 9952
Additional hops: 165309
Adding flit 256932 as NACK at time 9952
Additional hops: 165317
Adding flit 250228 as NACK at time 9952
Additional hops: 165323
Adding flit 344386 as NACK at time 9952
Reenqueueing errored packet 328419 at time 9953
Reenqueueing errored packet 343480 at time 9953
Reenqueueing errored packet 332059 at time 9953
Reenqueueing errored packet 298901 at time 9953
Reenqueueing errored packet 235980 at time 9953
Additional hops: 165329
Adding flit 263660 as NACK at time 9953
Additional hops: 165340
Adding flit 228583 as NACK at time 9953
Additional hops: 165345
Adding flit 360739 as NACK at time 9953
Additional hops: 165356
Adding flit 229969 as NACK at time 9953
Reenqueueing errored packet 361831 at time 9954
Reenqueueing errored packet 288592 at time 9954
Additional hops: 165363
Adding flit 344049 as NACK at time 9954
Additional hops: 165379
Adding flit 328908 as NACK at time 9954
Additional hops: 165386
Adding flit 328921 as NACK at time 9954
Additional hops: 165419
Adding flit 206508 as NACK at time 9954
Additional hops: 165424
Adding flit 298914 as NACK at time 9954
Reenqueueing errored packet 356558 at time 9955
Reenqueueing errored packet 235652 at time 9955
Reenqueueing errored packet 219077 at time 9955
Additional hops: 165430
Adding flit 324128 as NACK at time 9955
Additional hops: 165440
Adding flit 320448 as NACK at time 9955
Additional hops: 165446
Adding flit 346926 as NACK at time 9956
Reenqueueing errored packet 329334 at time 9957
Reenqueueing errored packet 325819 at time 9957
Reenqueueing errored packet 345223 at time 9957
Reenqueueing errored packet 236115 at time 9957
Reenqueueing errored packet 219560 at time 9957
Additional hops: 165452
Adding flit 326294 as NACK at time 9957
Additional hops: 165460
Adding flit 256114 as NACK at time 9957
Additional hops: 165467
Adding flit 338248 as NACK at time 9957
Reenqueueing errored packet 286664 at time 9958
Reenqueueing errored packet 293180 at time 9958
Additional hops: 165477
Adding flit 306074 as NACK at time 9958
Additional hops: 165482
Adding flit 321459 as NACK at time 9958
Additional hops: 165490
Adding flit 316514 as NACK at time 9958
Reenqueueing errored packet 360304 at time 9959
Reenqueueing errored packet 250527 at time 9959
Additional hops: 165499
Adding flit 329083 as NACK at time 9959
Additional hops: 165506
Adding flit 330134 as NACK at time 9959
Additional hops: 165514
Adding flit 303334 as NACK at time 9959
Reenqueueing errored packet 344708 at time 9960
Additional hops: 165517
Adding flit 319753 as NACK at time 9960
Reenqueueing errored packet 320049 at time 9961
Reenqueueing errored packet 325663 at time 9961
Reenqueueing errored packet 318119 at time 9961
Additional hops: 165522
Adding flit 315290 as NACK at time 9961
Additional hops: 165526
Adding flit 358883 as NACK at time 9961
Additional hops: 165539
Adding flit 225087 as NACK at time 9961
Additional hops: 165557
Adding flit 156357 as NACK at time 9962
Additional hops: 165559
Adding flit 342353 as NACK at time 9962
Additional hops: 165563
Adding flit 328857 as NACK at time 9963
Additional hops: 165570
Adding flit 344812 as NACK at time 9963
Reenqueueing errored packet 360739 at time 9964
Reenqueueing errored packet 331888 at time 9964
Reenqueueing errored packet 298751 at time 9964
Additional hops: 165580
Adding flit 247586 as NACK at time 9964
Reenqueueing errored packet 344386 at time 9965
Reenqueueing errored packet 241047 at time 9965
Reenqueueing errored packet 309881 at time 9965
Additional hops: 165582
Adding flit 362182 as NACK at time 9965
Additional hops: 165590
Adding flit 316637 as NACK at time 9965
Additional hops: 165601
Adding flit 245482 as NACK at time 9966
Reenqueueing errored packet 342353 at time 9967
Reenqueueing errored packet 323524 at time 9967
Additional hops: 165615
Adding flit 223933 as NACK at time 9967
Reenqueueing errored packet 324128 at time 9968
Additional hops: 165633
Adding flit 295350 as NACK at time 9968
Additional hops: 165639
Adding flit 344960 as NACK at time 9968
Additional hops: 165646
Adding flit 294830 as NACK at time 9968
Reenqueueing errored packet 321459 at time 9969
Reenqueueing errored packet 346926 at time 9969
Reenqueueing errored packet 328921 at time 9969
Reenqueueing errored packet 344049 at time 9969
Reenqueueing errored packet 256932 at time 9969
Additional hops: 165657
Adding flit 240519 as NACK at time 9969
Additional hops: 165665
Adding flit 325147 as NACK at time 9969
Additional hops: 165673
Adding flit 330888 as NACK at time 9969
Additional hops: 165681
Adding flit 328888 as NACK at time 9969
Additional hops: 165685
Adding flit 344182 as NACK at time 9969
Reenqueueing errored packet 362182 at time 9970
Reenqueueing errored packet 358883 at time 9970
Reenqueueing errored packet 326294 at time 9970
Additional hops: 165696
Adding flit 306739 as NACK at time 9970
Additional hops: 165700
Adding flit 360471 as NACK at time 9970
Additional hops: 165708
Adding flit 311440 as NACK at time 9970
Additional hops: 165713
Adding flit 326460 as NACK at time 9970
Additional hops: 165727
Adding flit 219066 as NACK at time 9970
Additional hops: 165733
Adding flit 346559 as NACK at time 9970
Reenqueueing errored packet 329340 at time 9971
Additional hops: 165740
Adding flit 247284 as NACK at time 9971
Additional hops: 165744
Adding flit 358614 as NACK at time 9971
Additional hops: 165748
Adding flit 294288 as NACK at time 9971
Reenqueueing errored packet 328857 at time 9972
Reenqueueing errored packet 315290 at time 9972
Reenqueueing errored packet 338248 at time 9972
Additional hops: 165753
Adding flit 326964 as NACK at time 9972
Additional hops: 165759
Adding flit 329835 as NACK at time 9972
Additional hops: 165769
Adding flit 320248 as NACK at time 9972
Reenqueueing errored packet 254229 at time 9973
Additional hops: 165774
Adding flit 361008 as NACK at time 9973
Additional hops: 165782
Adding flit 317042 as NACK at time 9973
Additional hops: 165789
Adding flit 327987 as NACK at time 9973
Reenqueueing errored packet 330134 at time 9974
Additional hops: 165797
Adding flit 327251 as NACK at time 9974
Reenqueueing errored packet 316514 at time 9975
Additional hops: 165804
Adding flit 240721 as NACK at time 9975
Reenqueueing errored packet 303334 at time 9976
Reenqueueing errored packet 320448 at time 9976
Additional hops: 165812
Adding flit 325644 as NACK at time 9976
Additional hops: 165822
Adding flit 312034 as NACK at time 9976
Additional hops: 165828
Adding flit 324926 as NACK at time 9976
Reenqueueing errored packet 222348 at time 9977
Additional hops: 165831
Adding flit 323836 as NACK at time 9977
Additional hops: 165839
Adding flit 327297 as NACK at time 9977
Additional hops: 165843
Adding flit 347263 as NACK at time 9977
Additional hops: 165849
Adding flit 360201 as NACK at time 9977
Reenqueueing errored packet 344182 at time 9978
Reenqueueing errored packet 344812 at time 9978
Reenqueueing errored packet 329083 at time 9978
Reenqueueing errored packet 261899 at time 9978
Additional hops: 165854
Adding flit 270906 as NACK at time 9978
Reenqueueing errored packet 360471 at time 9979
Reenqueueing errored packet 306074 at time 9979
Reenqueueing errored packet 294288 at time 9980
Reenqueueing errored packet 358614 at time 9980
Additional hops: 165859
Adding flit 327169 as NACK at time 9980
Reenqueueing errored packet 326460 at time 9981
Reenqueueing errored packet 344960 at time 9981
Additional hops: 165868
Adding flit 267938 as NACK at time 9981
Additional hops: 165875
Adding flit 314419 as NACK at time 9981
Additional hops: 165882
Adding flit 235624 as NACK at time 9981
Additional hops: 165884
Adding flit 347550 as NACK at time 9981
Reenqueueing errored packet 316637 at time 9982
Additional hops: 165888
Adding flit 360750 as NACK at time 9982
Additional hops: 165893
Adding flit 345327 as NACK at time 9982
Additional hops: 165897
Adding flit 360559 as NACK at time 9982
Additional hops: 165909
Adding flit 232046 as NACK at time 9982
Reenqueueing errored packet 326964 at time 9983
Reenqueueing errored packet 346559 at time 9983
Additional hops: 165919
Adding flit 232510 as NACK at time 9983
Additional hops: 165931
Adding flit 299500 as NACK at time 9983
Reenqueueing errored packet 323836 at time 9984
Reenqueueing errored packet 361008 at time 9984
Additional hops: 165943
Adding flit 237700 as NACK at time 9984
Additional hops: 165950
Adding flit 245438 as NACK at time 9984
Additional hops: 165958
Adding flit 325394 as NACK at time 9984
Reenqueueing errored packet 329835 at time 9985
Reenqueueing errored packet 247586 at time 9985
Additional hops: 165967
Adding flit 249503 as NACK at time 9985
Additional hops: 165975
Adding flit 330441 as NACK at time 9985
Additional hops: 165979
Adding flit 318622 as NACK at time 9985
Additional hops: 165982
Adding flit 327948 as NACK at time 9985
Additional hops: 165991
Adding flit 240755 as NACK at time 9985
Additional hops: 165999
Adding flit 257336 as NACK at time 9985
Reenqueueing errored packet 347550 at time 9986
Reenqueueing errored packet 347263 at time 9986
Reenqueueing errored packet 247284 at time 9986
Reenqueueing errored packet 328888 at time 9986
Reenqueueing errored packet 330888 at time 9986
Reenqueueing errored packet 325147 at time 9986
Additional hops: 166007
Adding flit 242806 as NACK at time 9986
Additional hops: 166012
Adding flit 347369 as NACK at time 9986
Reenqueueing errored packet 311440 at time 9987
Reenqueueing errored packet 328908 at time 9987
Reenqueueing errored packet 226298 at time 9987
Additional hops: 166017
Adding flit 303773 as NACK at time 9987
Additional hops: 166025
Adding flit 245187 as NACK at time 9987
Additional hops: 166034
Adding flit 340447 as NACK at time 9987
Additional hops: 166052
Adding flit 324153 as NACK at time 9987
Reenqueueing errored packet 327987 at time 9988
Reenqueueing errored packet 225087 at time 9988
Additional hops: 166059
Adding flit 313060 as NACK at time 9988
Additional hops: 166065
Adding flit 326972 as NACK at time 9988
Additional hops: 166076
Adding flit 236489 as NACK at time 9988
Reenqueueing errored packet 324926 at time 9989
Additional hops: 166088
Adding flit 233424 as NACK at time 9989
Additional hops: 166094
Adding flit 274002 as NACK at time 9989
Reenqueueing errored packet 360201 at time 9990
Reenqueueing errored packet 317042 at time 9990
Reenqueueing errored packet 360559 at time 9991
Reenqueueing errored packet 360750 at time 9991
Reenqueueing errored packet 327169 at time 9991
Reenqueueing errored packet 327251 at time 9991
Additional hops: 166100
Adding flit 346620 as NACK at time 9991
Reenqueueing errored packet 327948 at time 9992
Reenqueueing errored packet 240519 at time 9992
Additional hops: 166108
Adding flit 331658 as NACK at time 9992
Additional hops: 166117
Adding flit 249111 as NACK at time 9992
Reenqueueing errored packet 345327 at time 9993
Reenqueueing errored packet 325644 at time 9993
Reenqueueing errored packet 320248 at time 9993
Reenqueueing errored packet 306739 at time 9993
Additional hops: 166124
Adding flit 247369 as NACK at time 9993
Additional hops: 166134
Adding flit 318571 as NACK at time 9993
Additional hops: 166140
Adding flit 360039 as NACK at time 9993
Reenqueueing errored packet 327297 at time 9994
Additional hops: 166147
Adding flit 249572 as NACK at time 9994
Additional hops: 166152
Adding flit 304243 as NACK at time 9995
Additional hops: 166158
Adding flit 327874 as NACK at time 9995
Reenqueueing errored packet 314419 at time 9996
Additional hops: 166168
Adding flit 251701 as NACK at time 9996
Reenqueueing errored packet 347369 at time 9997
Reenqueueing errored packet 312034 at time 9997
Additional hops: 166179
Adding flit 290223 as NACK at time 9997
Additional hops: 166181
Adding flit 318848 as NACK at time 9997
Additional hops: 166188
Adding flit 322676 as NACK at time 9998
Additional hops: 166197
Adding flit 330236 as NACK at time 9998
Reenqueueing errored packet 245438 at time 9999
Reenqueueing errored packet 219066 at time 9999
Reenqueueing errored packet 156357 at time 9999
Additional hops: 166204
Adding flit 329578 as NACK at time 9999
Additional hops: 166209
Adding flit 253337 as NACK at time 9999
Additional hops: 166215
Adding flit 349005 as NACK at time 9999
Class 0:
Packet latency average = 856.635
	minimum = 5
	maximum = 7756
Network latency average = 815.115
	minimum = 5
	maximum = 4359
Slowest packet = 64
Flit latency average = 815.115
	minimum = 5
	maximum = 4359
Slowest flit = 213502
Fragmentation average = 0
	minimum = 0
	maximum = 0
Injected packet rate average = 0.600303
	minimum = 0.5169 (at node 14)
	maximum = 0.6522 (at node 3)
Accepted packet rate average = 0.506623
	minimum = 0.4839 (at node 33)
	maximum = 0.5297 (at node 56)
Injected flit rate average = 0.600303
	minimum = 0.5169 (at node 14)
	maximum = 0.6522 (at node 3)
Accepted flit rate average= 0.506623
	minimum = 0.4839 (at node 33)
	maximum = 0.5297 (at node 56)
Injected packet length average = 1
Accepted packet length average = 1
Total in-flight flits = 61626 (0 measured)
latency change    = 1
throughput change = 1
Average latency for class 0 exceeded 500 cycles. Aborting simulation.
Too many sample periods needed to converge
Simulation unstable, ending ...
Total run time 99.1567
