BEGIN Configuration File: examples/ecc_mesh88_config_0_0.650_packet_3
// $Id$

// Copyright (c) 2007-2015, Trustees of The Leland Stanford Junior University
// All rights reserved.
//
// Redistribution and use in source and binary forms, with or without
// modification, are permitted provided that the following conditions are met:
//
// Redistributions of source code must retain the above copyright notice, this
// list of conditions and the following disclaimer.
// Redistributions in binary form must reproduce the above copyright notice,
// this list of conditions and the following disclaimer in the documentation
// and/or other materials provided with the distribution.
//
// THIS SOFTWARE IS PROVIDED BY THE COPYRIGHT HOLDERS AND CONTRIBUTORS "AS IS"
// AND ANY EXPRESS OR IMPLIED WARRANTIES, INCLUDING, BUT NOT LIMITED TO, THE
// IMPLIED WARRANTIES OF MERCHANTABILITY AND FITNESS FOR A PARTICULAR PURPOSE
// ARE DISCLAIMED. IN NO EVENT SHALL THE COPYRIGHT OWNER OR CONTRIBUTORS BE
// LIABLE FOR ANY DIRECT, INDIRECT, INCIDENTAL, SPECIAL, EXEMPLARY, OR
// CONSEQUENTIAL DAMAGES (INCLUDING, BUT NOT LIMITED TO, PROCUREMENT OF
// SUBSTITUTE GOODS OR SERVICES; LOSS OF USE, DATA, OR PROFITS; OR BUSINESS
// INTERRUPTION) HOWEVER CAUSED AND ON ANY THEORY OF LIABILITY, WHETHER IN
// CONTRACT, STRICT LIABILITY, OR TORT (INCLUDING NEGLIGENCE OR OTHERWISE)
// ARISING IN ANY WAY OUT OF THE USE OF THIS SOFTWARE, EVEN IF ADVISED OF THE
// POSSIBILITY OF SUCH DAMAGE.

// Dragonfly
//




vc_buf_size = 256;


wait_for_tail_credit = 0;

//
// Router architecture
//
vc_allocator = separable_input_first; 
sw_allocator = separable_input_first;
alloc_iters  = 1;

credit_delay   = 2;
routing_delay  = 0;
vc_alloc_delay = 1;
sw_alloc_delay = 1;
st_final_delay = 1;

input_speedup     = 1;
output_speedup    = 1;
internal_speedup  = 2.0;


warmup_periods = 3;
sim_count          = 1;

sample_period  = 10000;  


routing_function = dor;
num_vcs     = 2;

priority = none;
traffic       = uniform; 

injection_rate = 0.65;
packet_size = 1;
injection_rate_uses_flits=1;

topology = mesh;

k  = 8;
n  = 2;

fer = 3;
ecc = link;
correctable = 0;

watch_out=-;
watch_file = watch.txt;

ecc = packet;

stats_out = examples/ecc_mesh88_config_0_0.650_packet_3.m;

END Configuration File: examples/ecc_mesh88_config_0_0.650_packet_3
Additional hops: 5
Adding flit 167 as NACK at time 21
Additional hops: 8
Adding flit 747 as NACK at time 30
Reenqueueing errored packet 167 at time 32
Additional hops: 11
Adding flit 643 as NACK at time 32
Reenqueueing errored packet 747 at time 37
Additional hops: 21
Adding flit 128 as NACK at time 37
Reenqueueing errored packet 643 at time 39
Additional hops: 26
Adding flit 972 as NACK at time 41
Additional hops: 33
Adding flit 816 as NACK at time 50
Reenqueueing errored packet 972 at time 52
Additional hops: 41
Adding flit 941 as NACK at time 54
Reenqueueing errored packet 128 at time 58
Additional hops: 45
Adding flit 1823 as NACK at time 61
Reenqueueing errored packet 816 at time 65
Reenqueueing errored packet 1823 at time 70
Reenqueueing errored packet 941 at time 71
Additional hops: 53
Adding flit 1928 as NACK at time 77
Additional hops: 67
Adding flit 310 as NACK at time 79
Additional hops: 73
Adding flit 2015 as NACK at time 82
Additional hops: 78
Adding flit 2944 as NACK at time 90
Additional hops: 86
Adding flit 1320 as NACK at time 92
Reenqueueing errored packet 1928 at time 94
Reenqueueing errored packet 2015 at time 95
Additional hops: 92
Adding flit 2600 as NACK at time 96
Reenqueueing errored packet 2944 at time 101
Reenqueueing errored packet 310 at time 108
Reenqueueing errored packet 2600 at time 109
Reenqueueing errored packet 1320 at time 109
Additional hops: 98
Adding flit 3393 as NACK at time 110
Additional hops: 102
Adding flit 4204 as NACK at time 121
Reenqueueing errored packet 3393 at time 123
Additional hops: 109
Adding flit 3957 as NACK at time 127
Additional hops: 112
Adding flit 4449 as NACK at time 128
Reenqueueing errored packet 4204 at time 130
Additional hops: 114
Adding flit 4943 as NACK at time 134
Reenqueueing errored packet 4449 at time 135
Reenqueueing errored packet 4943 at time 139
Additional hops: 123
Adding flit 2939 as NACK at time 140
Additional hops: 129
Adding flit 4397 as NACK at time 140
Additional hops: 133
Adding flit 4642 as NACK at time 141
Reenqueueing errored packet 3957 at time 142
Additional hops: 141
Adding flit 3904 as NACK at time 144
Additional hops: 151
Adding flit 2527 as NACK at time 148
Reenqueueing errored packet 4642 at time 150
Additional hops: 156
Adding flit 5549 as NACK at time 152
Reenqueueing errored packet 4397 at time 153
Additional hops: 163
Adding flit 3613 as NACK at time 154
Reenqueueing errored packet 2939 at time 159
Reenqueueing errored packet 3904 at time 161
Reenqueueing errored packet 5549 at time 163
Reenqueueing errored packet 3613 at time 169
Reenqueueing errored packet 2527 at time 169
Additional hops: 164
Adding flit 6893 as NACK at time 170
Additional hops: 168
Adding flit 5914 as NACK at time 171
Reenqueueing errored packet 6893 at time 173
Additional hops: 178
Adding flit 3666 as NACK at time 175
Reenqueueing errored packet 5914 at time 180
Additional hops: 187
Adding flit 4612 as NACK at time 191
Additional hops: 194
Adding flit 6062 as NACK at time 191
Reenqueueing errored packet 3666 at time 196
Reenqueueing errored packet 6062 at time 206
Additional hops: 199
Adding flit 6343 as NACK at time 208
Reenqueueing errored packet 4612 at time 210
Additional hops: 208
Adding flit 6131 as NACK at time 211
Additional hops: 215
Adding flit 6804 as NACK at time 214
Reenqueueing errored packet 6343 at time 219
Reenqueueing errored packet 6804 at time 229
Reenqueueing errored packet 6131 at time 230
Additional hops: 219
Adding flit 8761 as NACK at time 234
Additional hops: 232
Adding flit 4201 as NACK at time 235
Additional hops: 239
Adding flit 5518 as NACK at time 235
Additional hops: 250
Adding flit 5235 as NACK at time 242
Reenqueueing errored packet 8761 at time 243
Additional hops: 260
Adding flit 6700 as NACK at time 243
Reenqueueing errored packet 5518 at time 250
Additional hops: 265
Adding flit 6912 as NACK at time 251
Additional hops: 269
Adding flit 9689 as NACK at time 251
Additional hops: 277
Adding flit 5955 as NACK at time 253
Additional hops: 282
Adding flit 7799 as NACK at time 257
Reenqueueing errored packet 9689 at time 260
Reenqueueing errored packet 6912 at time 262
Reenqueueing errored packet 4201 at time 262
Additional hops: 289
Adding flit 7098 as NACK at time 262
Additional hops: 296
Adding flit 9621 as NACK at time 263
Reenqueueing errored packet 6700 at time 264
Reenqueueing errored packet 5235 at time 265
Reenqueueing errored packet 7799 at time 268
Additional hops: 302
Adding flit 7576 as NACK at time 269
Reenqueueing errored packet 5955 at time 270
Additional hops: 305
Adding flit 10842 as NACK at time 272
Additional hops: 312
Adding flit 6881 as NACK at time 275
Additional hops: 316
Adding flit 8566 as NACK at time 276
Reenqueueing errored packet 7098 at time 277
Reenqueueing errored packet 9621 at time 278
Reenqueueing errored packet 10842 at time 279
Reenqueueing errored packet 7576 at time 282
Reenqueueing errored packet 8566 at time 285
Reenqueueing errored packet 6881 at time 290
Additional hops: 322
Adding flit 9377 as NACK at time 303
Additional hops: 328
Adding flit 9907 as NACK at time 304
Additional hops: 333
Adding flit 10158 as NACK at time 314
Reenqueueing errored packet 9377 at time 316
Reenqueueing errored packet 9907 at time 317
Reenqueueing errored packet 10158 at time 325
Additional hops: 344
Adding flit 8265 as NACK at time 331
Additional hops: 349
Adding flit 12639 as NACK at time 332
Additional hops: 355
Adding flit 11453 as NACK at time 334
Additional hops: 358
Adding flit 13368 as NACK at time 336
Additional hops: 363
Adding flit 11400 as NACK at time 337
Additional hops: 370
Adding flit 9233 as NACK at time 341
Reenqueueing errored packet 13368 at time 343
Reenqueueing errored packet 12639 at time 343
Reenqueueing errored packet 11453 at time 347
Reenqueueing errored packet 11400 at time 348
Reenqueueing errored packet 8265 at time 354
Additional hops: 378
Adding flit 7850 as NACK at time 354
Reenqueueing errored packet 9233 at time 356
Additional hops: 381
Adding flit 13934 as NACK at time 359
Additional hops: 391
Adding flit 9514 as NACK at time 361
Reenqueueing errored packet 13934 at time 366
Additional hops: 400
Adding flit 12148 as NACK at time 368
Reenqueueing errored packet 7850 at time 371
Additional hops: 410
Adding flit 10793 as NACK at time 375
Additional hops: 416
Adding flit 10914 as NACK at time 376
Reenqueueing errored packet 9514 at time 382
Additional hops: 425
Adding flit 11321 as NACK at time 384
Additional hops: 436
Adding flit 8489 as NACK at time 386
Reenqueueing errored packet 12148 at time 387
Reenqueueing errored packet 10914 at time 389
Additional hops: 448
Adding flit 8920 as NACK at time 389
Additional hops: 454
Adding flit 10762 as NACK at time 392
Additional hops: 457
Adding flit 13154 as NACK at time 392
Additional hops: 470
Adding flit 9300 as NACK at time 392
Additional hops: 473
Adding flit 15749 as NACK at time 393
Reenqueueing errored packet 10793 at time 396
Additional hops: 483
Adding flit 10079 as NACK at time 397
Reenqueueing errored packet 13154 at time 399
Reenqueueing errored packet 15749 at time 400
Additional hops: 490
Adding flit 13497 as NACK at time 400
Additional hops: 500
Adding flit 10711 as NACK at time 400
Additional hops: 505
Adding flit 14625 as NACK at time 401
Additional hops: 511
Adding flit 10311 as NACK at time 402
Reenqueueing errored packet 11321 at time 403
Reenqueueing errored packet 10762 at time 405
Reenqueueing errored packet 8489 at time 409
Reenqueueing errored packet 14625 at time 412
Reenqueueing errored packet 8920 at time 414
Additional hops: 521
Adding flit 10408 as NACK at time 414
Reenqueueing errored packet 10311 at time 415
Reenqueueing errored packet 13497 at time 415
Additional hops: 532
Adding flit 11405 as NACK at time 415
Reenqueueing errored packet 10079 at time 418
Reenqueueing errored packet 9300 at time 419
Additional hops: 540
Adding flit 11919 as NACK at time 419
Reenqueueing errored packet 10711 at time 421
Additional hops: 548
Adding flit 12392 as NACK at time 424
Additional hops: 555
Adding flit 13340 as NACK at time 425
Additional hops: 562
Adding flit 11158 as NACK at time 430
Reenqueueing errored packet 10408 at time 435
Reenqueueing errored packet 11919 at time 436
Additional hops: 571
Adding flit 13457 as NACK at time 437
Reenqueueing errored packet 11405 at time 438
Reenqueueing errored packet 13340 at time 440
Reenqueueing errored packet 12392 at time 441
Additional hops: 578
Adding flit 12643 as NACK at time 443
Reenqueueing errored packet 11158 at time 445
Additional hops: 580
Adding flit 18550 as NACK at time 453
Additional hops: 586
Adding flit 14779 as NACK at time 455
Reenqueueing errored packet 13457 at time 456
Reenqueueing errored packet 18550 at time 458
Additional hops: 589
Adding flit 18970 as NACK at time 467
Reenqueueing errored packet 14779 at time 468
Additional hops: 591
Adding flit 19178 as NACK at time 468
Additional hops: 601
Adding flit 13792 as NACK at time 469
Additional hops: 603
Adding flit 19374 as NACK at time 472
Reenqueueing errored packet 19178 at time 473
Reenqueueing errored packet 18970 at time 474
Additional hops: 611
Adding flit 14347 as NACK at time 474
Additional hops: 617
Adding flit 10188 as NACK at time 476
Reenqueueing errored packet 19374 at time 477
Additional hops: 623
Adding flit 14662 as NACK at time 481
Additional hops: 625
Adding flit 18698 as NACK at time 481
Additional hops: 632
Adding flit 14484 as NACK at time 481
Additional hops: 641
Adding flit 15332 as NACK at time 482
Additional hops: 652
Adding flit 9532 as NACK at time 483
Additional hops: 659
Adding flit 15201 as NACK at time 485
Reenqueueing errored packet 18698 at time 486
Additional hops: 671
Adding flit 9649 as NACK at time 487
Reenqueueing errored packet 10188 at time 489
Reenqueueing errored packet 13792 at time 490
Additional hops: 680
Adding flit 14786 as NACK at time 490
Reenqueueing errored packet 14347 at time 491
Reenqueueing errored packet 14662 at time 494
Reenqueueing errored packet 14484 at time 496
Additional hops: 685
Adding flit 17930 as NACK at time 498
Additional hops: 692
Adding flit 15394 as NACK at time 498
Additional hops: 699
Adding flit 18342 as NACK at time 499
Reenqueueing errored packet 15201 at time 500
Reenqueueing errored packet 15332 at time 501
Additional hops: 703
Adding flit 16776 as NACK at time 502
Additional hops: 714
Adding flit 11418 as NACK at time 502
Reenqueueing errored packet 9532 at time 506
Reenqueueing errored packet 17930 at time 509
Reenqueueing errored packet 14786 at time 509
Reenqueueing errored packet 16776 at time 511
Reenqueueing errored packet 9649 at time 512
Additional hops: 724
Adding flit 13833 as NACK at time 512
Reenqueueing errored packet 15394 at time 513
Reenqueueing errored packet 18342 at time 514
Additional hops: 729
Adding flit 19176 as NACK at time 514
Additional hops: 733
Adding flit 20619 as NACK at time 518
Additional hops: 738
Adding flit 17997 as NACK at time 522
Additional hops: 742
Adding flit 19378 as NACK at time 523
Reenqueueing errored packet 19176 at time 525
Reenqueueing errored packet 11418 at time 525
Additional hops: 747
Adding flit 18714 as NACK at time 525
Additional hops: 755
Adding flit 17165 as NACK at time 525
Additional hops: 760
Adding flit 19650 as NACK at time 525
Reenqueueing errored packet 20619 at time 527
Additional hops: 769
Adding flit 13012 as NACK at time 531
Reenqueueing errored packet 19378 at time 532
Reenqueueing errored packet 17997 at time 533
Reenqueueing errored packet 13833 at time 533
Reenqueueing errored packet 19650 at time 536
Reenqueueing errored packet 18714 at time 536
Additional hops: 774
Adding flit 18778 as NACK at time 538
Additional hops: 779
Adding flit 18323 as NACK at time 539
Reenqueueing errored packet 17165 at time 542
Additional hops: 787
Adding flit 11424 as NACK at time 542
Additional hops: 795
Adding flit 17626 as NACK at time 542
Additional hops: 804
Adding flit 12904 as NACK at time 546
Additional hops: 808
Adding flit 21889 as NACK at time 546
Reenqueueing errored packet 18778 at time 549
Reenqueueing errored packet 18323 at time 550
Reenqueueing errored packet 13012 at time 550
Additional hops: 813
Adding flit 18626 as NACK at time 553
Reenqueueing errored packet 21889 at time 555
Additional hops: 822
Adding flit 19200 as NACK at time 557
Reenqueueing errored packet 17626 at time 559
Reenqueueing errored packet 11424 at time 559
Reenqueueing errored packet 18626 at time 564
Reenqueueing errored packet 12904 at time 565
Additional hops: 829
Adding flit 20152 as NACK at time 573
Additional hops: 834
Adding flit 20221 as NACK at time 575
Reenqueueing errored packet 19200 at time 576
Additional hops: 843
Adding flit 14885 as NACK at time 576
Additional hops: 853
Adding flit 18481 as NACK at time 584
Reenqueueing errored packet 20221 at time 586
Reenqueueing errored packet 20152 at time 588
Reenqueueing errored packet 14885 at time 595
Additional hops: 862
Adding flit 18982 as NACK at time 596
Additional hops: 869
Adding flit 19592 as NACK at time 604
Reenqueueing errored packet 18481 at time 605
Additional hops: 879
Adding flit 12826 as NACK at time 605
Additional hops: 886
Adding flit 20423 as NACK at time 608
Reenqueueing errored packet 18982 at time 615
Reenqueueing errored packet 19592 at time 619
Reenqueueing errored packet 20423 at time 623
Additional hops: 897
Adding flit 16173 as NACK at time 623
Additional hops: 907
Adding flit 15435 as NACK at time 623
Reenqueueing errored packet 12826 at time 626
Additional hops: 912
Adding flit 21102 as NACK at time 626
Additional hops: 917
Adding flit 22710 as NACK at time 630
Additional hops: 922
Adding flit 22697 as NACK at time 634
Reenqueueing errored packet 21102 at time 637
Additional hops: 935
Adding flit 13151 as NACK at time 638
Additional hops: 944
Adding flit 20292 as NACK at time 638
Reenqueueing errored packet 22710 at time 641
Additional hops: 953
Adding flit 22792 as NACK at time 641
Additional hops: 961
Adding flit 14853 as NACK at time 643
Reenqueueing errored packet 15435 at time 644
Reenqueueing errored packet 22697 at time 645
Reenqueueing errored packet 16173 at time 646
Additional hops: 966
Adding flit 18531 as NACK at time 651
Additional hops: 975
Adding flit 16374 as NACK at time 655
Reenqueueing errored packet 20292 at time 657
Reenqueueing errored packet 14853 at time 660
Reenqueueing errored packet 22792 at time 660
Reenqueueing errored packet 18531 at time 662
Reenqueueing errored packet 13151 at time 665
Reenqueueing errored packet 16374 at time 674
Additional hops: 981
Adding flit 23560 as NACK at time 682
Additional hops: 988
Adding flit 19898 as NACK at time 684
Additional hops: 992
Adding flit 28029 as NACK at time 687
Additional hops: 1001
Adding flit 19422 as NACK at time 690
Additional hops: 1010
Adding flit 17208 as NACK at time 692
Additional hops: 1018
Adding flit 17250 as NACK at time 692
Additional hops: 1027
Adding flit 18250 as NACK at time 693
Reenqueueing errored packet 23560 at time 695
Reenqueueing errored packet 28029 at time 696
Additional hops: 1036
Adding flit 24672 as NACK at time 698
Reenqueueing errored packet 19898 at time 699
Additional hops: 1041
Adding flit 28418 as NACK at time 699
Additional hops: 1046
Adding flit 28033 as NACK at time 699
Additional hops: 1058
Adding flit 16887 as NACK at time 704
Additional hops: 1070
Adding flit 17497 as NACK at time 708
Reenqueueing errored packet 17250 at time 709
Reenqueueing errored packet 19422 at time 709
Reenqueueing errored packet 28033 at time 710
Reenqueueing errored packet 28418 at time 710
Reenqueueing errored packet 17208 at time 711
Reenqueueing errored packet 18250 at time 712
Additional hops: 1076
Adding flit 24184 as NACK at time 713
Reenqueueing errored packet 24672 at time 717
Additional hops: 1083
Adding flit 22156 as NACK at time 718
Additional hops: 1091
Adding flit 19549 as NACK at time 720
Additional hops: 1099
Adding flit 21210 as NACK at time 721
Additional hops: 1110
Adding flit 17069 as NACK at time 722
Reenqueueing errored packet 24184 at time 726
Reenqueueing errored packet 16887 at time 729
Reenqueueing errored packet 22156 at time 733
Reenqueueing errored packet 17497 at time 733
Reenqueueing errored packet 19549 at time 737
Reenqueueing errored packet 21210 at time 738
Reenqueueing errored packet 17069 at time 745
Additional hops: 1117
Adding flit 28678 as NACK at time 752
Additional hops: 1123
Adding flit 22718 as NACK at time 753
Additional hops: 1131
Adding flit 21900 as NACK at time 761
Additional hops: 1135
Adding flit 27187 as NACK at time 763
Additional hops: 1142
Adding flit 27138 as NACK at time 764
Reenqueueing errored packet 22718 at time 766
Reenqueueing errored packet 28678 at time 767
Additional hops: 1152
Adding flit 19457 as NACK at time 768
Additional hops: 1161
Adding flit 20143 as NACK at time 770
Additional hops: 1164
Adding flit 27175 as NACK at time 770
Additional hops: 1174
Adding flit 27023 as NACK at time 771
Additional hops: 1180
Adding flit 22806 as NACK at time 771
Reenqueueing errored packet 27187 at time 772
Additional hops: 1186
Adding flit 25242 as NACK at time 772
Additional hops: 1192
Adding flit 22968 as NACK at time 773
Additional hops: 1195
Adding flit 31387 as NACK at time 775
Reenqueueing errored packet 27175 at time 777
Additional hops: 1202
Adding flit 28785 as NACK at time 777
Reenqueueing errored packet 21900 at time 778
Reenqueueing errored packet 27138 at time 779
Additional hops: 1210
Adding flit 22723 as NACK at time 779
Reenqueueing errored packet 31387 at time 782
Reenqueueing errored packet 22806 at time 784
Reenqueueing errored packet 25242 at time 785
Additional hops: 1217
Adding flit 22478 as NACK at time 785
Reenqueueing errored packet 22968 at time 786
Reenqueueing errored packet 20143 at time 789
Reenqueueing errored packet 19457 at time 789
Reenqueueing errored packet 28785 at time 792
Reenqueueing errored packet 27023 at time 792
Additional hops: 1230
Adding flit 17496 as NACK at time 792
Reenqueueing errored packet 22723 at time 796
Reenqueueing errored packet 22478 at time 800
Additional hops: 1239
Adding flit 24534 as NACK at time 806
Additional hops: 1249
Adding flit 20208 as NACK at time 813
Additional hops: 1259
Adding flit 20658 as NACK at time 814
Additional hops: 1265
Adding flit 25663 as NACK at time 815
Additional hops: 1270
Adding flit 32869 as NACK at time 817
Reenqueueing errored packet 17496 at time 819
Additional hops: 1275
Adding flit 29049 as NACK at time 819
Additional hops: 1282
Adding flit 30079 as NACK at time 824
Reenqueueing errored packet 24534 at time 825
Additional hops: 1285
Adding flit 34002 as NACK at time 827
Reenqueueing errored packet 32869 at time 828
Reenqueueing errored packet 25663 at time 828
Additional hops: 1289
Adding flit 31154 as NACK at time 829
Reenqueueing errored packet 29049 at time 830
Reenqueueing errored packet 34002 at time 834
Reenqueueing errored packet 20208 at time 834
Reenqueueing errored packet 20658 at time 835
Reenqueueing errored packet 31154 at time 838
Additional hops: 1294
Adding flit 30957 as NACK at time 838
Reenqueueing errored packet 30079 at time 839
Additional hops: 1299
Adding flit 28567 as NACK at time 843
Reenqueueing errored packet 30957 at time 849
Additional hops: 1301
Adding flit 34911 as NACK at time 849
Reenqueueing errored packet 34911 at time 854
Reenqueueing errored packet 28567 at time 854
Additional hops: 1309
Adding flit 25385 as NACK at time 860
Additional hops: 1317
Adding flit 29703 as NACK at time 861
Additional hops: 1321
Adding flit 35282 as NACK at time 864
Additional hops: 1330
Adding flit 28801 as NACK at time 866
Reenqueueing errored packet 35282 at time 873
Additional hops: 1339
Adding flit 28321 as NACK at time 876
Reenqueueing errored packet 25385 at time 877
Reenqueueing errored packet 29703 at time 878
Reenqueueing errored packet 28801 at time 885
Additional hops: 1342
Adding flit 36396 as NACK at time 886
Additional hops: 1350
Adding flit 30484 as NACK at time 888
Additional hops: 1355
Adding flit 27180 as NACK at time 889
Reenqueueing errored packet 36396 at time 893
Reenqueueing errored packet 28321 at time 895
Reenqueueing errored packet 27180 at time 900
Additional hops: 1361
Adding flit 26861 as NACK at time 900
Reenqueueing errored packet 30484 at time 905
Additional hops: 1370
Adding flit 30456 as NACK at time 905
Additional hops: 1379
Adding flit 24301 as NACK at time 908
Additional hops: 1385
Adding flit 31635 as NACK at time 911
Reenqueueing errored packet 26861 at time 913
Additional hops: 1391
Adding flit 27474 as NACK at time 917
Additional hops: 1401
Adding flit 24022 as NACK at time 922
Reenqueueing errored packet 31635 at time 924
Additional hops: 1404
Adding flit 33963 as NACK at time 926
Reenqueueing errored packet 24301 at time 927
Additional hops: 1414
Adding flit 28670 as NACK at time 929
Reenqueueing errored packet 27474 at time 930
Additional hops: 1421
Adding flit 30200 as NACK at time 931
Additional hops: 1427
Adding flit 28797 as NACK at time 931
Additional hops: 1433
Adding flit 25182 as NACK at time 932
Reenqueueing errored packet 33963 at time 933
Additional hops: 1442
Adding flit 31383 as NACK at time 934
Additional hops: 1455
Adding flit 22662 as NACK at time 939
Reenqueueing errored packet 24022 at time 943
Reenqueueing errored packet 28797 at time 944
Reenqueueing errored packet 25182 at time 945
Reenqueueing errored packet 30200 at time 946
Reenqueueing errored packet 28670 at time 950
Additional hops: 1458
Adding flit 30876 as NACK at time 950
Additional hops: 1465
Adding flit 28926 as NACK at time 952
Reenqueueing errored packet 31383 at time 953
Additional hops: 1473
Adding flit 28175 as NACK at time 956
Additional hops: 1476
Adding flit 38922 as NACK at time 956
Additional hops: 1486
Adding flit 22584 as NACK at time 956
Reenqueueing errored packet 30876 at time 957
Additional hops: 1495
Adding flit 25897 as NACK at time 958
Additional hops: 1500
Adding flit 32420 as NACK at time 961
Reenqueueing errored packet 38922 at time 963
Reenqueueing errored packet 22662 at time 966
Reenqueueing errored packet 28926 at time 967
Additional hops: 1503
Adding flit 31855 as NACK at time 970
Reenqueueing errored packet 32420 at time 972
Reenqueueing errored packet 28175 at time 973
Additional hops: 1507
Adding flit 35459 as NACK at time 975
Reenqueueing errored packet 31855 at time 977
Reenqueueing errored packet 25897 at time 977
Reenqueueing errored packet 22584 at time 977
Reenqueueing errored packet 35459 at time 984
Additional hops: 1514
Adding flit 34024 as NACK at time 990
Additional hops: 1525
Adding flit 23239 as NACK at time 991
Additional hops: 1534
Adding flit 31213 as NACK at time 992
Additional hops: 1543
Adding flit 35148 as NACK at time 995
Additional hops: 1546
Adding flit 34375 as NACK at time 996
Additional hops: 1552
Adding flit 29503 as NACK at time 1000
Additional hops: 1555
Adding flit 41080 as NACK at time 1002
Reenqueueing errored packet 34375 at time 1003
Reenqueueing errored packet 34024 at time 1005
Additional hops: 1559
Adding flit 28894 as NACK at time 1005
Additional hops: 1565
Adding flit 31941 as NACK at time 1006
Reenqueueing errored packet 41080 at time 1009
Reenqueueing errored packet 31213 at time 1011
Reenqueueing errored packet 29503 at time 1013
Reenqueueing errored packet 28894 at time 1014
Reenqueueing errored packet 35148 at time 1014
Reenqueueing errored packet 23239 at time 1014
Reenqueueing errored packet 31941 at time 1019
Additional hops: 1569
Adding flit 31970 as NACK at time 1021
Additional hops: 1575
Adding flit 36314 as NACK at time 1022
Additional hops: 1581
Adding flit 36253 as NACK at time 1024
Reenqueueing errored packet 31970 at time 1030
Additional hops: 1584
Adding flit 42242 as NACK at time 1031
Reenqueueing errored packet 36314 at time 1035
Reenqueueing errored packet 36253 at time 1037
Reenqueueing errored packet 42242 at time 1038
Additional hops: 1593
Adding flit 27334 as NACK at time 1039
Additional hops: 1596
Adding flit 37850 as NACK at time 1043
Additional hops: 1602
Adding flit 42081 as NACK at time 1049
Reenqueueing errored packet 37850 at time 1050
Additional hops: 1606
Adding flit 31254 as NACK at time 1056
Additional hops: 1615
Adding flit 27961 as NACK at time 1057
Reenqueueing errored packet 27334 at time 1058
Reenqueueing errored packet 42081 at time 1062
Reenqueueing errored packet 31254 at time 1065
Reenqueueing errored packet 27961 at time 1076
Additional hops: 1620
Adding flit 44104 as NACK at time 1080
Additional hops: 1631
Adding flit 27782 as NACK at time 1083
Additional hops: 1641
Adding flit 36854 as NACK at time 1089
Reenqueueing errored packet 44104 at time 1091
Additional hops: 1645
Adding flit 39528 as NACK at time 1091
Reenqueueing errored packet 39528 at time 1100
Additional hops: 1654
Adding flit 26752 as NACK at time 1100
Reenqueueing errored packet 27782 at time 1106
Reenqueueing errored packet 36854 at time 1110
Additional hops: 1665
Adding flit 31644 as NACK at time 1115
Reenqueueing errored packet 26752 at time 1119
Additional hops: 1669
Adding flit 34348 as NACK at time 1129
Additional hops: 1675
Adding flit 32083 as NACK at time 1134
Additional hops: 1686
Adding flit 32848 as NACK at time 1136
Additional hops: 1690
Adding flit 46636 as NACK at time 1136
Reenqueueing errored packet 34348 at time 1138
Reenqueueing errored packet 31644 at time 1138
Reenqueueing errored packet 46636 at time 1145
Additional hops: 1693
Adding flit 47046 as NACK at time 1145
Reenqueueing errored packet 32083 at time 1147
Additional hops: 1700
Adding flit 32278 as NACK at time 1150
Reenqueueing errored packet 47046 at time 1152
Reenqueueing errored packet 32848 at time 1159
Additional hops: 1710
Adding flit 29683 as NACK at time 1159
Additional hops: 1715
Adding flit 39772 as NACK at time 1159
Additional hops: 1726
Adding flit 28004 as NACK at time 1160
Additional hops: 1730
Adding flit 47652 as NACK at time 1160
Reenqueueing errored packet 32278 at time 1165
Reenqueueing errored packet 47652 at time 1169
Additional hops: 1735
Adding flit 44064 as NACK at time 1169
Reenqueueing errored packet 39772 at time 1170
Additional hops: 1742
Adding flit 41589 as NACK at time 1178
Reenqueueing errored packet 44064 at time 1180
Reenqueueing errored packet 29683 at time 1180
Additional hops: 1743
Adding flit 48927 as NACK at time 1180
Reenqueueing errored packet 48927 at time 1183
Reenqueueing errored packet 28004 at time 1183
Reenqueueing errored packet 41589 at time 1193
Additional hops: 1751
Adding flit 32328 as NACK at time 1194
Additional hops: 1757
Adding flit 42726 as NACK at time 1194
Additional hops: 1764
Adding flit 36807 as NACK at time 1198
Additional hops: 1775
Adding flit 28191 as NACK at time 1199
Additional hops: 1782
Adding flit 37598 as NACK at time 1200
Additional hops: 1792
Adding flit 31106 as NACK at time 1205
Reenqueueing errored packet 42726 at time 1207
Reenqueueing errored packet 32328 at time 1211
Reenqueueing errored packet 36807 at time 1213
Reenqueueing errored packet 37598 at time 1215
Additional hops: 1800
Adding flit 33851 as NACK at time 1216
Reenqueueing errored packet 28191 at time 1222
Additional hops: 1809
Adding flit 38977 as NACK at time 1223
Additional hops: 1814
Adding flit 43763 as NACK at time 1225
Reenqueueing errored packet 31106 at time 1226
Additional hops: 1823
Adding flit 28971 as NACK at time 1228
Additional hops: 1834
Adding flit 35136 as NACK at time 1230
Reenqueueing errored packet 33851 at time 1233
Additional hops: 1848
Adding flit 29121 as NACK at time 1234
Reenqueueing errored packet 43763 at time 1236
Additional hops: 1851
Adding flit 50840 as NACK at time 1236
Additional hops: 1857
Adding flit 41731 as NACK at time 1238
Additional hops: 1865
Adding flit 33713 as NACK at time 1240
Reenqueueing errored packet 38977 at time 1242
Reenqueueing errored packet 50840 at time 1243
Reenqueueing errored packet 28971 at time 1247
Additional hops: 1870
Adding flit 45717 as NACK at time 1247
Additional hops: 1876
Adding flit 40800 as NACK at time 1248
Additional hops: 1884
Adding flit 44495 as NACK at time 1250
Reenqueueing errored packet 41731 at time 1251
Additional hops: 1885
Adding flit 51873 as NACK at time 1252
Reenqueueing errored packet 35136 at time 1253
Additional hops: 1891
Adding flit 41439 as NACK at time 1254
Reenqueueing errored packet 51873 at time 1255
Reenqueueing errored packet 33713 at time 1257
Reenqueueing errored packet 45717 at time 1258
Additional hops: 1900
Adding flit 37214 as NACK at time 1258
Additional hops: 1913
Adding flit 30116 as NACK at time 1258
Reenqueueing errored packet 40800 at time 1261
Reenqueueing errored packet 29121 at time 1263
Additional hops: 1922
Adding flit 44404 as NACK at time 1265
Reenqueueing errored packet 41439 at time 1267
Reenqueueing errored packet 44495 at time 1267
Additional hops: 1926
Adding flit 42421 as NACK at time 1275
Additional hops: 1935
Adding flit 29556 as NACK at time 1275
Reenqueueing errored packet 37214 at time 1277
Additional hops: 1944
Adding flit 38081 as NACK at time 1280
Reenqueueing errored packet 42421 at time 1284
Reenqueueing errored packet 44404 at time 1284
Reenqueueing errored packet 30116 at time 1285
Additional hops: 1952
Adding flit 38409 as NACK at time 1285
Additional hops: 1958
Adding flit 48265 as NACK at time 1286
Additional hops: 1969
Adding flit 29804 as NACK at time 1293
Reenqueueing errored packet 29556 at time 1294
Reenqueueing errored packet 48265 at time 1299
Reenqueueing errored packet 38081 at time 1299
Reenqueueing errored packet 38409 at time 1302
Additional hops: 1978
Adding flit 31608 as NACK at time 1304
Additional hops: 1983
Adding flit 38205 as NACK at time 1314
Additional hops: 1987
Adding flit 54104 as NACK at time 1315
Reenqueueing errored packet 29804 at time 1316
Reenqueueing errored packet 31608 at time 1323
Reenqueueing errored packet 54104 at time 1324
Reenqueueing errored packet 38205 at time 1325
Additional hops: 1992
Adding flit 47049 as NACK at time 1326
Additional hops: 1997
Adding flit 46618 as NACK at time 1335
Additional hops: 2007
Adding flit 33891 as NACK at time 1336
Additional hops: 2012
Adding flit 39836 as NACK at time 1336
Reenqueueing errored packet 47049 at time 1337
Additional hops: 2021
Adding flit 38197 as NACK at time 1338
Additional hops: 2030
Adding flit 38228 as NACK at time 1341
Additional hops: 2039
Adding flit 47175 as NACK at time 1341
Reenqueueing errored packet 46618 at time 1346
Additional hops: 2042
Adding flit 54776 as NACK at time 1346
Reenqueueing errored packet 39836 at time 1347
Reenqueueing errored packet 54776 at time 1353
Reenqueueing errored packet 38197 at time 1357
Reenqueueing errored packet 33891 at time 1357
Additional hops: 2048
Adding flit 48575 as NACK at time 1358
Reenqueueing errored packet 47175 at time 1360
Reenqueueing errored packet 38228 at time 1360
Additional hops: 2056
Adding flit 46184 as NACK at time 1361
Additional hops: 2069
Adding flit 32747 as NACK at time 1362
Additional hops: 2075
Adding flit 54202 as NACK at time 1368
Reenqueueing errored packet 48575 at time 1371
Additional hops: 2077
Adding flit 50657 as NACK at time 1372
Reenqueueing errored packet 50657 at time 1377
Reenqueueing errored packet 46184 at time 1378
Additional hops: 2086
Adding flit 33299 as NACK at time 1379
Additional hops: 2097
Adding flit 35107 as NACK at time 1379
Reenqueueing errored packet 54202 at time 1381
Reenqueueing errored packet 32747 at time 1389
Additional hops: 2103
Adding flit 52678 as NACK at time 1390
Additional hops: 2111
Adding flit 49921 as NACK at time 1395
Additional hops: 2120
Adding flit 37089 as NACK at time 1397
Reenqueueing errored packet 33299 at time 1398
Reenqueueing errored packet 35107 at time 1402
Reenqueueing errored packet 52678 at time 1403
Additional hops: 2129
Adding flit 46401 as NACK at time 1405
Additional hops: 2137
Adding flit 39987 as NACK at time 1408
Reenqueueing errored packet 49921 at time 1412
Reenqueueing errored packet 37089 at time 1416
Additional hops: 2139
Adding flit 58276 as NACK at time 1416
Additional hops: 2146
Adding flit 50723 as NACK at time 1416
Additional hops: 2151
Adding flit 42482 as NACK at time 1419
Reenqueueing errored packet 58276 at time 1421
Additional hops: 2157
Adding flit 37453 as NACK at time 1422
Additional hops: 2166
Adding flit 44576 as NACK at time 1423
Additional hops: 2172
Adding flit 39871 as NACK at time 1423
Reenqueueing errored packet 46401 at time 1424
Additional hops: 2175
Adding flit 52527 as NACK at time 1424
Additional hops: 2185
Adding flit 39830 as NACK at time 1424
Reenqueueing errored packet 39987 at time 1425
Additional hops: 2187
Adding flit 58852 as NACK at time 1425
Additional hops: 2191
Adding flit 43582 as NACK at time 1427
Additional hops: 2196
Adding flit 51883 as NACK at time 1427
Additional hops: 2201
Adding flit 53756 as NACK at time 1428
Additional hops: 2212
Adding flit 37296 as NACK at time 1429
Reenqueueing errored packet 58852 at time 1430
Reenqueueing errored packet 42482 at time 1430
Reenqueueing errored packet 52527 at time 1431
Reenqueueing errored packet 50723 at time 1431
Additional hops: 2221
Adding flit 44745 as NACK at time 1431
Reenqueueing errored packet 37453 at time 1435
Reenqueueing errored packet 43582 at time 1436
Reenqueueing errored packet 39871 at time 1436
Reenqueueing errored packet 51883 at time 1438
Reenqueueing errored packet 53756 at time 1439
Reenqueueing errored packet 44576 at time 1442
Reenqueueing errored packet 39830 at time 1445
Additional hops: 2229
Adding flit 40828 as NACK at time 1445
Additional hops: 2232
Adding flit 46883 as NACK at time 1445
Additional hops: 2235
Adding flit 59632 as NACK at time 1446
Reenqueueing errored packet 44745 at time 1450
Additional hops: 2241
Adding flit 41512 as NACK at time 1451
Reenqueueing errored packet 46883 at time 1452
Reenqueueing errored packet 37296 at time 1452
Reenqueueing errored packet 59632 at time 1453
Additional hops: 2250
Adding flit 44405 as NACK at time 1455
Additional hops: 2262
Adding flit 33328 as NACK at time 1460
Reenqueueing errored packet 40828 at time 1462
Reenqueueing errored packet 41512 at time 1464
Additional hops: 2270
Adding flit 41715 as NACK at time 1467
Additional hops: 2273
Adding flit 60588 as NACK at time 1472
Reenqueueing errored packet 44405 at time 1474
Additional hops: 2278
Adding flit 52731 as NACK at time 1477
Additional hops: 2287
Adding flit 40398 as NACK at time 1477
Reenqueueing errored packet 60588 at time 1479
Additional hops: 2295
Adding flit 44758 as NACK at time 1481
Reenqueueing errored packet 41715 at time 1484
Reenqueueing errored packet 33328 at time 1485
Additional hops: 2298
Adding flit 60675 as NACK at time 1487
Additional hops: 2305
Adding flit 44156 as NACK at time 1487
Reenqueueing errored packet 52731 at time 1488
Reenqueueing errored packet 60675 at time 1494
Reenqueueing errored packet 40398 at time 1496
Additional hops: 2308
Adding flit 61614 as NACK at time 1497
Additional hops: 2311
Adding flit 61765 as NACK at time 1497
Reenqueueing errored packet 44758 at time 1498
Additional hops: 2318
Adding flit 37815 as NACK at time 1498
Additional hops: 2324
Adding flit 55132 as NACK at time 1499
Reenqueueing errored packet 44156 at time 1502
Additional hops: 2328
Adding flit 56876 as NACK at time 1503
Reenqueueing errored packet 61765 at time 1504
Reenqueueing errored packet 61614 at time 1504
Reenqueueing errored packet 56876 at time 1512
Reenqueueing errored packet 55132 at time 1512
Reenqueueing errored packet 37815 at time 1513
Additional hops: 2333
Adding flit 62133 as NACK at time 1519
Additional hops: 2341
Adding flit 50355 as NACK at time 1525
Additional hops: 2350
Adding flit 43449 as NACK at time 1526
Additional hops: 2354
Adding flit 62539 as NACK at time 1527
Reenqueueing errored packet 62133 at time 1530
Additional hops: 2359
Adding flit 57514 as NACK at time 1531
Additional hops: 2367
Adding flit 51813 as NACK at time 1532
Reenqueueing errored packet 62539 at time 1536
Additional hops: 2375
Adding flit 45493 as NACK at time 1537
Reenqueueing errored packet 57514 at time 1542
Reenqueueing errored packet 50355 at time 1542
Additional hops: 2387
Adding flit 39066 as NACK at time 1544
Reenqueueing errored packet 43449 at time 1545
Additional hops: 2393
Adding flit 62883 as NACK at time 1548
Reenqueueing errored packet 51813 at time 1549
Reenqueueing errored packet 45493 at time 1554
Additional hops: 2399
Adding flit 57650 as NACK at time 1557
Additional hops: 2404
Adding flit 45514 as NACK at time 1559
Additional hops: 2411
Adding flit 50365 as NACK at time 1560
Reenqueueing errored packet 62883 at time 1561
Additional hops: 2417
Adding flit 51895 as NACK at time 1567
Reenqueueing errored packet 39066 at time 1569
Additional hops: 2425
Adding flit 52155 as NACK at time 1569
Reenqueueing errored packet 45514 at time 1570
Reenqueueing errored packet 57650 at time 1570
Additional hops: 2437
Adding flit 40117 as NACK at time 1574
Reenqueueing errored packet 50365 at time 1575
Additional hops: 2445
Adding flit 45339 as NACK at time 1579
Reenqueueing errored packet 51895 at time 1580
Additional hops: 2453
Adding flit 45683 as NACK at time 1581
Reenqueueing errored packet 52155 at time 1586
Additional hops: 2457
Adding flit 57585 as NACK at time 1590
Additional hops: 2460
Adding flit 60472 as NACK at time 1594
Reenqueueing errored packet 45339 at time 1596
Reenqueueing errored packet 45683 at time 1598
Reenqueueing errored packet 57585 at time 1599
Reenqueueing errored packet 40117 at time 1599
Additional hops: 2464
Adding flit 61855 as NACK at time 1599
Reenqueueing errored packet 60472 at time 1601
Additional hops: 2470
Adding flit 45037 as NACK at time 1603
Additional hops: 2474
Adding flit 66019 as NACK at time 1607
Reenqueueing errored packet 61855 at time 1608
Additional hops: 2484
Adding flit 44113 as NACK at time 1614
Reenqueueing errored packet 66019 at time 1616
Reenqueueing errored packet 45037 at time 1616
Additional hops: 2489
Adding flit 54823 as NACK at time 1617
Additional hops: 2497
Adding flit 57277 as NACK at time 1617
Additional hops: 2502
Adding flit 44676 as NACK at time 1619
Additional hops: 2510
Adding flit 45325 as NACK at time 1621
Additional hops: 2516
Adding flit 54603 as NACK at time 1624
Additional hops: 2526
Adding flit 45039 as NACK at time 1627
Reenqueueing errored packet 54823 at time 1628
Reenqueueing errored packet 44676 at time 1630
Additional hops: 2531
Adding flit 66978 as NACK at time 1630
Additional hops: 2535
Adding flit 66355 as NACK at time 1632
Reenqueueing errored packet 57277 at time 1634
Reenqueueing errored packet 44113 at time 1635
Additional hops: 2536
Adding flit 67728 as NACK at time 1635
Additional hops: 2540
Adding flit 67289 as NACK at time 1635
Reenqueueing errored packet 54603 at time 1637
Reenqueueing errored packet 67728 at time 1638
Reenqueueing errored packet 45325 at time 1638
Additional hops: 2546
Adding flit 57642 as NACK at time 1639
Reenqueueing errored packet 66355 at time 1641
Reenqueueing errored packet 66978 at time 1641
Additional hops: 2550
Adding flit 55917 as NACK at time 1641
Additional hops: 2552
Adding flit 60694 as NACK at time 1643
Reenqueueing errored packet 67289 at time 1644
Additional hops: 2560
Adding flit 58945 as NACK at time 1645
Reenqueueing errored packet 60694 at time 1648
Reenqueueing errored packet 45039 at time 1648
Reenqueueing errored packet 55917 at time 1650
Additional hops: 2568
Adding flit 47721 as NACK at time 1651
Reenqueueing errored packet 57642 at time 1652
Additional hops: 2574
Adding flit 52988 as NACK at time 1653
Reenqueueing errored packet 58945 at time 1662
Additional hops: 2582
Adding flit 56771 as NACK at time 1663
Additional hops: 2591
Adding flit 46384 as NACK at time 1664
Additional hops: 2597
Adding flit 59295 as NACK at time 1665
Reenqueueing errored packet 52988 at time 1666
Reenqueueing errored packet 47721 at time 1668
Additional hops: 2603
Adding flit 50873 as NACK at time 1673
Additional hops: 2612
Adding flit 59428 as NACK at time 1674
Additional hops: 2616
Adding flit 62825 as NACK at time 1676
Reenqueueing errored packet 59295 at time 1678
Reenqueueing errored packet 56771 at time 1680
Additional hops: 2623
Adding flit 55903 as NACK at time 1681
Additional hops: 2630
Adding flit 54589 as NACK at time 1681
Reenqueueing errored packet 46384 at time 1683
Additional hops: 2637
Adding flit 46965 as NACK at time 1683
Reenqueueing errored packet 62825 at time 1685
Reenqueueing errored packet 50873 at time 1686
Additional hops: 2643
Adding flit 49678 as NACK at time 1690
Reenqueueing errored packet 59428 at time 1693
Additional hops: 2654
Adding flit 50797 as NACK at time 1693
Additional hops: 2660
Adding flit 68818 as NACK at time 1693
Reenqueueing errored packet 54589 at time 1696
Reenqueueing errored packet 55903 at time 1696
Reenqueueing errored packet 46965 at time 1698
Additional hops: 2670
Adding flit 44138 as NACK at time 1700
Additional hops: 2680
Adding flit 59920 as NACK at time 1702
Reenqueueing errored packet 49678 at time 1703
Reenqueueing errored packet 68818 at time 1706
Reenqueueing errored packet 50797 at time 1716
Additional hops: 2683
Adding flit 62901 as NACK at time 1718
Reenqueueing errored packet 44138 at time 1721
Reenqueueing errored packet 59920 at time 1723
Reenqueueing errored packet 62901 at time 1725
Additional hops: 2686
Adding flit 71372 as NACK at time 1729
Additional hops: 2691
Adding flit 56841 as NACK at time 1732
Reenqueueing errored packet 71372 at time 1736
Additional hops: 2700
Adding flit 46397 as NACK at time 1741
Additional hops: 2706
Adding flit 59545 as NACK at time 1742
Reenqueueing errored packet 56841 at time 1743
Additional hops: 2713
Adding flit 48286 as NACK at time 1743
Additional hops: 2714
Adding flit 72326 as NACK at time 1746
Additional hops: 2723
Adding flit 51174 as NACK at time 1748
Reenqueueing errored packet 72326 at time 1749
Additional hops: 2729
Adding flit 63109 as NACK at time 1752
Reenqueueing errored packet 59545 at time 1755
Additional hops: 2735
Adding flit 51359 as NACK at time 1756
Reenqueueing errored packet 48286 at time 1758
Additional hops: 2742
Adding flit 51693 as NACK at time 1759
Reenqueueing errored packet 46397 at time 1760
Additional hops: 2748
Adding flit 59123 as NACK at time 1764
Reenqueueing errored packet 63109 at time 1765
Reenqueueing errored packet 51174 at time 1767
Reenqueueing errored packet 51359 at time 1769
Additional hops: 2753
Adding flit 59810 as NACK at time 1772
Reenqueueing errored packet 51693 at time 1774
Additional hops: 2762
Adding flit 42533 as NACK at time 1774
Reenqueueing errored packet 59123 at time 1777
Reenqueueing errored packet 59810 at time 1783
Additional hops: 2772
Adding flit 52511 as NACK at time 1783
Additional hops: 2777
Adding flit 60115 as NACK at time 1787
Additional hops: 2779
Adding flit 73997 as NACK at time 1791
Reenqueueing errored packet 42533 at time 1793
Reenqueueing errored packet 73997 at time 1796
Reenqueueing errored packet 60115 at time 1798
Additional hops: 2782
Adding flit 74260 as NACK at time 1799
Additional hops: 2790
Adding flit 64375 as NACK at time 1802
Additional hops: 2794
Adding flit 61004 as NACK at time 1802
Reenqueueing errored packet 52511 at time 1804
Reenqueueing errored packet 74260 at time 1806
Additional hops: 2801
Adding flit 49455 as NACK at time 1808
Reenqueueing errored packet 61004 at time 1811
Additional hops: 2817
Adding flit 38409 as NACK at time 1817
Reenqueueing errored packet 64375 at time 1819
Reenqueueing errored packet 49455 at time 1823
Additional hops: 2824
Adding flit 58542 as NACK at time 1823
Additional hops: 2837
Adding flit 44257 as NACK at time 1825
Additional hops: 2845
Adding flit 61503 as NACK at time 1826
Additional hops: 2849
Adding flit 67114 as NACK at time 1829
Reenqueueing errored packet 67114 at time 1838
Reenqueueing errored packet 58542 at time 1838
Reenqueueing errored packet 61503 at time 1843
Additional hops: 2855
Adding flit 63498 as NACK at time 1843
Additional hops: 2860
Adding flit 67406 as NACK at time 1846
Reenqueueing errored packet 38409 at time 1850
Reenqueueing errored packet 44257 at time 1852
Reenqueueing errored packet 63498 at time 1856
Additional hops: 2867
Adding flit 46512 as NACK at time 1856
Reenqueueing errored packet 67406 at time 1857
Additional hops: 2873
Adding flit 64398 as NACK at time 1866
Additional hops: 2878
Adding flit 64758 as NACK at time 1870
Reenqueueing errored packet 46512 at time 1871
Reenqueueing errored packet 64398 at time 1879
Reenqueueing errored packet 64758 at time 1881
Additional hops: 2884
Adding flit 59362 as NACK at time 1901
Additional hops: 2888
Adding flit 77628 as NACK at time 1901
Additional hops: 2892
Adding flit 57782 as NACK at time 1904
Additional hops: 2900
Adding flit 65885 as NACK at time 1909
Reenqueueing errored packet 77628 at time 1910
Additional hops: 2912
Adding flit 50042 as NACK at time 1910
Additional hops: 2918
Adding flit 64941 as NACK at time 1910
Additional hops: 2923
Adding flit 68153 as NACK at time 1911
Reenqueueing errored packet 57782 at time 1913
Reenqueueing errored packet 59362 at time 1914
Additional hops: 2931
Adding flit 54003 as NACK at time 1915
Additional hops: 2937
Adding flit 53155 as NACK at time 1918
Reenqueueing errored packet 68153 at time 1922
Reenqueueing errored packet 64941 at time 1923
Additional hops: 2943
Adding flit 68615 as NACK at time 1925
Reenqueueing errored packet 65885 at time 1926
Reenqueueing errored packet 53155 at time 1931
Reenqueueing errored packet 54003 at time 1932
Reenqueueing errored packet 50042 at time 1935
Additional hops: 2946
Adding flit 63720 as NACK at time 1935
Reenqueueing errored packet 68615 at time 1938
Additional hops: 2954
Adding flit 58499 as NACK at time 1939
Reenqueueing errored packet 63720 at time 1942
Additional hops: 2959
Adding flit 74549 as NACK at time 1943
Additional hops: 2967
Adding flit 65223 as NACK at time 1949
Reenqueueing errored packet 74549 at time 1954
Reenqueueing errored packet 58499 at time 1956
Additional hops: 2971
Adding flit 70568 as NACK at time 1956
Additional hops: 2978
Adding flit 74840 as NACK at time 1961
Reenqueueing errored packet 70568 at time 1965
Reenqueueing errored packet 65223 at time 1966
Additional hops: 2982
Adding flit 80753 as NACK at time 1966
Additional hops: 2989
Adding flit 59210 as NACK at time 1967
Additional hops: 2999
Adding flit 49011 as NACK at time 1969
Additional hops: 3011
Adding flit 46112 as NACK at time 1972
Reenqueueing errored packet 80753 at time 1975
Reenqueueing errored packet 74840 at time 1976
Reenqueueing errored packet 59210 at time 1982
Additional hops: 3014
Adding flit 65662 as NACK at time 1982
Additional hops: 3019
Adding flit 67326 as NACK at time 1985
Additional hops: 3026
Adding flit 56927 as NACK at time 1986
Reenqueueing errored packet 65662 at time 1989
Additional hops: 3032
Adding flit 64894 as NACK at time 1989
Reenqueueing errored packet 49011 at time 1990
Additional hops: 3042
Adding flit 45693 as NACK at time 1991
Additional hops: 3053
Adding flit 62371 as NACK at time 1991
Additional hops: 3058
Adding flit 77424 as NACK at time 1995
Reenqueueing errored packet 67326 at time 1996
Additional hops: 3063
Adding flit 76295 as NACK at time 1996
Reenqueueing errored packet 46112 at time 1997
Reenqueueing errored packet 56927 at time 2001
Reenqueueing errored packet 64894 at time 2002
Additional hops: 3074
Adding flit 49258 as NACK at time 2003
Additional hops: 3085
Adding flit 48582 as NACK at time 2004
Reenqueueing errored packet 77424 at time 2006
Additional hops: 3090
Adding flit 64190 as NACK at time 2006
Reenqueueing errored packet 76295 at time 2007
Additional hops: 3095
Adding flit 69879 as NACK at time 2008
Reenqueueing errored packet 45693 at time 2012
Additional hops: 3104
Adding flit 49289 as NACK at time 2013
Additional hops: 3110
Adding flit 75119 as NACK at time 2013
Reenqueueing errored packet 62371 at time 2014
Additional hops: 3118
Adding flit 70418 as NACK at time 2014
Additional hops: 3122
Adding flit 67167 as NACK at time 2016
Reenqueueing errored packet 64190 at time 2017
Additional hops: 3135
Adding flit 49247 as NACK at time 2017
Reenqueueing errored packet 69879 at time 2019
Additional hops: 3145
Adding flit 70623 as NACK at time 2019
Additional hops: 3153
Adding flit 67514 as NACK at time 2019
Additional hops: 3160
Adding flit 67292 as NACK at time 2024
Reenqueueing errored packet 67167 at time 2025
Reenqueueing errored packet 75119 at time 2026
Reenqueueing errored packet 49258 at time 2026
Reenqueueing errored packet 48582 at time 2027
Reenqueueing errored packet 70418 at time 2031
Reenqueueing errored packet 49289 at time 2032
Additional hops: 3168
Adding flit 57225 as NACK at time 2032
Additional hops: 3171
Adding flit 84126 as NACK at time 2035
Reenqueueing errored packet 67514 at time 2036
Reenqueueing errored packet 67292 at time 2039
Additional hops: 3177
Adding flit 68459 as NACK at time 2039
Reenqueueing errored packet 70623 at time 2040
Reenqueueing errored packet 84126 at time 2042
Reenqueueing errored packet 49247 at time 2044
Additional hops: 3188
Adding flit 50774 as NACK at time 2046
Reenqueueing errored packet 57225 at time 2049
Additional hops: 3191
Adding flit 84742 as NACK at time 2051
Reenqueueing errored packet 68459 at time 2052
Additional hops: 3197
Adding flit 65161 as NACK at time 2052
Additional hops: 3205
Adding flit 72989 as NACK at time 2052
Reenqueueing errored packet 84742 at time 2058
Additional hops: 3212
Adding flit 75260 as NACK at time 2059
Additional hops: 3218
Adding flit 77684 as NACK at time 2062
Additional hops: 3223
Adding flit 83853 as NACK at time 2064
Additional hops: 3228
Adding flit 73378 as NACK at time 2064
Reenqueueing errored packet 65161 at time 2065
Reenqueueing errored packet 72989 at time 2069
Reenqueueing errored packet 50774 at time 2069
Additional hops: 3235
Adding flit 61536 as NACK at time 2072
Reenqueueing errored packet 75260 at time 2074
Reenqueueing errored packet 73378 at time 2075
Reenqueueing errored packet 83853 at time 2075
Reenqueueing errored packet 77684 at time 2075
Additional hops: 3242
Adding flit 54125 as NACK at time 2079
Additional hops: 3246
Adding flit 85864 as NACK at time 2081
Reenqueueing errored packet 61536 at time 2087
Reenqueueing errored packet 85864 at time 2090
Additional hops: 3255
Adding flit 73761 as NACK at time 2093
Reenqueueing errored packet 54125 at time 2094
Additional hops: 3263
Adding flit 61790 as NACK at time 2096
Additional hops: 3266
Adding flit 86161 as NACK at time 2100
Additional hops: 3275
Adding flit 74327 as NACK at time 2100
Reenqueueing errored packet 86161 at time 2107
Additional hops: 3284
Adding flit 73539 as NACK at time 2107
Additional hops: 3290
Adding flit 62213 as NACK at time 2108
Additional hops: 3298
Adding flit 60124 as NACK at time 2110
Additional hops: 3303
Adding flit 64255 as NACK at time 2111
Reenqueueing errored packet 73761 at time 2112
Reenqueueing errored packet 61790 at time 2113
Reenqueueing errored packet 74327 at time 2119
Reenqueueing errored packet 62213 at time 2121
Additional hops: 3310
Adding flit 71796 as NACK at time 2121
Reenqueueing errored packet 64255 at time 2122
Additional hops: 3318
Adding flit 72192 as NACK at time 2124
Reenqueueing errored packet 73539 at time 2126
Reenqueueing errored packet 60124 at time 2127
Reenqueueing errored packet 71796 at time 2136
Reenqueueing errored packet 72192 at time 2141
Additional hops: 3329
Adding flit 66645 as NACK at time 2151
Additional hops: 3337
Adding flit 74886 as NACK at time 2151
Additional hops: 3343
Adding flit 79719 as NACK at time 2154
Additional hops: 3351
Adding flit 65552 as NACK at time 2156
Additional hops: 3361
Adding flit 62764 as NACK at time 2157
Additional hops: 3368
Adding flit 65137 as NACK at time 2159
Additional hops: 3375
Adding flit 64668 as NACK at time 2159
Reenqueueing errored packet 79719 at time 2167
Reenqueueing errored packet 74886 at time 2168
Reenqueueing errored packet 65552 at time 2173
Reenqueueing errored packet 64668 at time 2174
Reenqueueing errored packet 66645 at time 2174
Additional hops: 3383
Adding flit 77533 as NACK at time 2174
Additional hops: 3390
Adding flit 81900 as NACK at time 2177
Reenqueueing errored packet 62764 at time 2178
Additional hops: 3393
Adding flit 90045 as NACK at time 2178
Additional hops: 3397
Adding flit 88804 as NACK at time 2178
Additional hops: 3407
Adding flit 68400 as NACK at time 2179
Additional hops: 3417
Adding flit 56367 as NACK at time 2181
Reenqueueing errored packet 90045 at time 2185
Reenqueueing errored packet 88804 at time 2187
Additional hops: 3425
Adding flit 59319 as NACK at time 2187
Additional hops: 3434
Adding flit 49641 as NACK at time 2188
Reenqueueing errored packet 77533 at time 2191
Additional hops: 3441
Adding flit 67060 as NACK at time 2191
Reenqueueing errored packet 81900 at time 2192
Additional hops: 3452
Adding flit 54091 as NACK at time 2192
Additional hops: 3458
Adding flit 76424 as NACK at time 2192
Additional hops: 3464
Adding flit 74132 as NACK at time 2197
Reenqueueing errored packet 68400 at time 2200
Reenqueueing errored packet 56367 at time 2202
Reenqueueing errored packet 59319 at time 2204
Reenqueueing errored packet 76424 at time 2205
Reenqueueing errored packet 67060 at time 2206
Reenqueueing errored packet 49641 at time 2207
Reenqueueing errored packet 74132 at time 2210
Additional hops: 3478
Adding flit 54789 as NACK at time 2212
Additional hops: 3486
Adding flit 56576 as NACK at time 2212
Reenqueueing errored packet 54091 at time 2215
Additional hops: 3493
Adding flit 79100 as NACK at time 2219
Additional hops: 3499
Adding flit 90737 as NACK at time 2225
Additional hops: 3507
Adding flit 52041 as NACK at time 2228
Additional hops: 3513
Adding flit 78420 as NACK at time 2228
Reenqueueing errored packet 56576 at time 2229
Reenqueueing errored packet 79100 at time 2234
Additional hops: 3521
Adding flit 75179 as NACK at time 2234
Additional hops: 3529
Adding flit 56711 as NACK at time 2237
Reenqueueing errored packet 90737 at time 2238
Reenqueueing errored packet 78420 at time 2241
Reenqueueing errored packet 54789 at time 2241
Reenqueueing errored packet 52041 at time 2245
Reenqueueing errored packet 75179 at time 2251
Reenqueueing errored packet 56711 at time 2254
Additional hops: 3539
Adding flit 61498 as NACK at time 2260
Additional hops: 3546
Adding flit 78750 as NACK at time 2260
Additional hops: 3548
Adding flit 92805 as NACK at time 2262
Additional hops: 3553
Adding flit 92864 as NACK at time 2263
Additional hops: 3564
Adding flit 69970 as NACK at time 2263
Reenqueueing errored packet 92805 at time 2267
Reenqueueing errored packet 92864 at time 2274
Reenqueueing errored packet 78750 at time 2275
Additional hops: 3570
Adding flit 70314 as NACK at time 2275
Additional hops: 3574
Adding flit 83296 as NACK at time 2275
Additional hops: 3585
Adding flit 62027 as NACK at time 2279
Additional hops: 3586
Adding flit 94479 as NACK at time 2279
Reenqueueing errored packet 61498 at time 2281
Reenqueueing errored packet 94479 at time 2282
Reenqueueing errored packet 83296 at time 2284
Reenqueueing errored packet 69970 at time 2286
Reenqueueing errored packet 70314 at time 2288
Additional hops: 3594
Adding flit 79911 as NACK at time 2292
Additional hops: 3603
Adding flit 61610 as NACK at time 2295
Reenqueueing errored packet 62027 at time 2302
Additional hops: 3611
Adding flit 71617 as NACK at time 2307
Reenqueueing errored packet 79911 at time 2309
Reenqueueing errored packet 61610 at time 2314
Additional hops: 3613
Adding flit 96004 as NACK at time 2318
Additional hops: 3621
Adding flit 82754 as NACK at time 2319
Additional hops: 3630
Adding flit 82578 as NACK at time 2321
Reenqueueing errored packet 96004 at time 2323
Additional hops: 3636
Adding flit 86594 as NACK at time 2323
Reenqueueing errored packet 71617 at time 2324
Additional hops: 3646
Adding flit 58819 as NACK at time 2325
Additional hops: 3649
Adding flit 95991 as NACK at time 2325
Additional hops: 3656
Adding flit 69187 as NACK at time 2326
Reenqueueing errored packet 95991 at time 2332
Additional hops: 3659
Adding flit 95096 as NACK at time 2332
Additional hops: 3665
Adding flit 69017 as NACK at time 2333
Reenqueueing errored packet 86594 at time 2336
Reenqueueing errored packet 82754 at time 2336
Reenqueueing errored packet 95096 at time 2339
Reenqueueing errored packet 82578 at time 2340
Reenqueueing errored packet 69187 at time 2341
Additional hops: 3669
Adding flit 96169 as NACK at time 2344
Reenqueueing errored packet 69017 at time 2346
Reenqueueing errored packet 58819 at time 2346
Reenqueueing errored packet 96169 at time 2353
Additional hops: 3677
Adding flit 81151 as NACK at time 2355
Additional hops: 3688
Adding flit 61509 as NACK at time 2356
Additional hops: 3698
Adding flit 63940 as NACK at time 2357
Additional hops: 3705
Adding flit 70209 as NACK at time 2363
Additional hops: 3711
Adding flit 84807 as NACK at time 2368
Reenqueueing errored packet 81151 at time 2372
Additional hops: 3721
Adding flit 59417 as NACK at time 2374
Additional hops: 3725
Adding flit 85277 as NACK at time 2376
Reenqueueing errored packet 70209 at time 2378
Reenqueueing errored packet 63940 at time 2378
Additional hops: 3732
Adding flit 85128 as NACK at time 2378
Reenqueueing errored packet 61509 at time 2379
Reenqueueing errored packet 84807 at time 2381
Additional hops: 3738
Adding flit 85436 as NACK at time 2381
Reenqueueing errored packet 85277 at time 2385
Reenqueueing errored packet 85128 at time 2393
Reenqueueing errored packet 85436 at time 2394
Additional hops: 3740
Adding flit 98566 as NACK at time 2394
Reenqueueing errored packet 59417 at time 2395
Additional hops: 3749
Adding flit 72866 as NACK at time 2397
Reenqueueing errored packet 98566 at time 2399
Additional hops: 3755
Adding flit 88261 as NACK at time 2399
Additional hops: 3759
Adding flit 73126 as NACK at time 2402
Additional hops: 3764
Adding flit 98992 as NACK at time 2403
Additional hops: 3769
Adding flit 89334 as NACK at time 2404
Additional hops: 3773
Adding flit 92347 as NACK at time 2408
Reenqueueing errored packet 73126 at time 2411
Reenqueueing errored packet 88261 at time 2412
Additional hops: 3780
Adding flit 84005 as NACK at time 2413
Reenqueueing errored packet 98992 at time 2414
Reenqueueing errored packet 89334 at time 2415
Additional hops: 3787
Adding flit 84229 as NACK at time 2415
Reenqueueing errored packet 72866 at time 2416
Reenqueueing errored packet 92347 at time 2417
Additional hops: 3792
Adding flit 93584 as NACK at time 2419
Additional hops: 3800
Adding flit 81587 as NACK at time 2425
Reenqueueing errored packet 84005 at time 2428
Additional hops: 3807
Adding flit 71574 as NACK at time 2428
Additional hops: 3825
Adding flit 33299 as NACK at time 2429
Reenqueueing errored packet 93584 at time 2430
Reenqueueing errored packet 84229 at time 2430
Additional hops: 3830
Adding flit 79428 as NACK at time 2437
Reenqueueing errored packet 81587 at time 2442
Additional hops: 3834
Adding flit 100720 as NACK at time 2442
Reenqueueing errored packet 71574 at time 2443
Additional hops: 3845
Adding flit 65203 as NACK at time 2444
Additional hops: 3850
Adding flit 75369 as NACK at time 2445
Reenqueueing errored packet 79428 at time 2448
Reenqueueing errored packet 100720 at time 2451
Reenqueueing errored packet 75369 at time 2456
Additional hops: 3861
Adding flit 60486 as NACK at time 2456
Additional hops: 3870
Adding flit 76973 as NACK at time 2463
Reenqueueing errored packet 33299 at time 2466
Reenqueueing errored packet 65203 at time 2467
Additional hops: 3878
Adding flit 73311 as NACK at time 2467
Additional hops: 3888
Adding flit 58236 as NACK at time 2467
Additional hops: 3891
Adding flit 102302 as NACK at time 2473
Reenqueueing errored packet 60486 at time 2479
Reenqueueing errored packet 102302 at time 2480
Additional hops: 3896
Adding flit 90440 as NACK at time 2480
Reenqueueing errored packet 76973 at time 2482
Additional hops: 3903
Adding flit 84623 as NACK at time 2483
Reenqueueing errored packet 73311 at time 2484
Additional hops: 3909
Adding flit 75803 as NACK at time 2486
Reenqueueing errored packet 58236 at time 2488
Reenqueueing errored packet 90440 at time 2491
Additional hops: 3917
Adding flit 79417 as NACK at time 2491
Additional hops: 3924
Adding flit 85133 as NACK at time 2491
Additional hops: 3929
Adding flit 101423 as NACK at time 2494
Additional hops: 3932
Adding flit 102808 as NACK at time 2495
Additional hops: 3936
Adding flit 91662 as NACK at time 2496
Reenqueueing errored packet 84623 at time 2498
Reenqueueing errored packet 75803 at time 2499
Reenqueueing errored packet 102808 at time 2502
Reenqueueing errored packet 91662 at time 2505
Reenqueueing errored packet 101423 at time 2505
Reenqueueing errored packet 85133 at time 2506
Reenqueueing errored packet 79417 at time 2508
Additional hops: 3954
Adding flit 73761 as NACK at time 2509
Additional hops: 3966
Adding flit 63895 as NACK at time 2514
Additional hops: 3971
Adding flit 97185 as NACK at time 2515
Additional hops: 3980
Adding flit 85304 as NACK at time 2519
Additional hops: 3992
Adding flit 62623 as NACK at time 2519
Additional hops: 3997
Adding flit 76133 as NACK at time 2521
Reenqueueing errored packet 97185 at time 2526
Additional hops: 4005
Adding flit 90282 as NACK at time 2527
Reenqueueing errored packet 76133 at time 2532
Additional hops: 4013
Adding flit 64028 as NACK at time 2534
Additional hops: 4019
Adding flit 90750 as NACK at time 2535
Reenqueueing errored packet 85304 at time 2538
Reenqueueing errored packet 63895 at time 2539
Additional hops: 4027
Adding flit 76541 as NACK at time 2540
Additional hops: 4038
Adding flit 59224 as NACK at time 2540
Additional hops: 4042
Adding flit 105033 as NACK at time 2543
Reenqueueing errored packet 90282 at time 2544
Reenqueueing errored packet 62623 at time 2544
Reenqueueing errored packet 73761 at time 2546
Reenqueueing errored packet 90750 at time 2548
Additional hops: 4048
Adding flit 77159 as NACK at time 2549
Reenqueueing errored packet 64028 at time 2551
Reenqueueing errored packet 105033 at time 2552
Additional hops: 4060
Adding flit 63503 as NACK at time 2554
Reenqueueing errored packet 76541 at time 2557
Reenqueueing errored packet 77159 at time 2562
Reenqueueing errored packet 59224 at time 2563
Additional hops: 4067
Adding flit 75551 as NACK at time 2563
Additional hops: 4073
Adding flit 71931 as NACK at time 2565
Additional hops: 4082
Adding flit 69227 as NACK at time 2571
Reenqueueing errored packet 71931 at time 2578
Reenqueueing errored packet 75551 at time 2578
Reenqueueing errored packet 63503 at time 2579
Additional hops: 4094
Adding flit 60383 as NACK at time 2585
Additional hops: 4104
Adding flit 74582 as NACK at time 2586
Additional hops: 4114
Adding flit 65325 as NACK at time 2589
Reenqueueing errored packet 69227 at time 2590
Additional hops: 4120
Adding flit 89796 as NACK at time 2591
Additional hops: 4128
Adding flit 90503 as NACK at time 2594
Additional hops: 4138
Adding flit 65888 as NACK at time 2595
Additional hops: 4145
Adding flit 93316 as NACK at time 2597
Reenqueueing errored packet 89796 at time 2604
Additional hops: 4148
Adding flit 87833 as NACK at time 2606
Reenqueueing errored packet 74582 at time 2607
Reenqueueing errored packet 65325 at time 2610
Reenqueueing errored packet 60383 at time 2610
Additional hops: 4150
Adding flit 108153 as NACK at time 2610
Reenqueueing errored packet 90503 at time 2611
Reenqueueing errored packet 93316 at time 2612
Reenqueueing errored packet 87833 at time 2613
Reenqueueing errored packet 108153 at time 2615
Reenqueueing errored packet 65888 at time 2616
Additional hops: 4155
Adding flit 97353 as NACK at time 2616
Additional hops: 4162
Adding flit 95822 as NACK at time 2618
Additional hops: 4165
Adding flit 105308 as NACK at time 2622
Additional hops: 4167
Adding flit 97701 as NACK at time 2622
Additional hops: 4176
Adding flit 89406 as NACK at time 2622
Additional hops: 4184
Adding flit 79388 as NACK at time 2622
Additional hops: 4193
Adding flit 82373 as NACK at time 2625
Additional hops: 4199
Adding flit 96184 as NACK at time 2626
Reenqueueing errored packet 97701 at time 2627
Reenqueueing errored packet 97353 at time 2627
Reenqueueing errored packet 105308 at time 2629
Additional hops: 4207
Adding flit 88367 as NACK at time 2629
Additional hops: 4216
Adding flit 91958 as NACK at time 2629
Additional hops: 4223
Adding flit 91130 as NACK at time 2630
Additional hops: 4229
Adding flit 94139 as NACK at time 2630
Reenqueueing errored packet 95822 at time 2633
Additional hops: 4232
Adding flit 101932 as NACK at time 2634
Additional hops: 4234
Adding flit 104108 as NACK at time 2637
Additional hops: 4241
Adding flit 81177 as NACK at time 2638
Reenqueueing errored packet 96184 at time 2639
Reenqueueing errored packet 79388 at time 2639
Reenqueueing errored packet 101932 at time 2641
Reenqueueing errored packet 89406 at time 2641
Reenqueueing errored packet 104108 at time 2642
Reenqueueing errored packet 94139 at time 2643
Additional hops: 4246
Adding flit 79080 as NACK at time 2643
Reenqueueing errored packet 82373 at time 2644
Reenqueueing errored packet 91130 at time 2645
Reenqueueing errored packet 88367 at time 2646
Reenqueueing errored packet 91958 at time 2648
Additional hops: 4252
Adding flit 90804 as NACK at time 2649
Additional hops: 4255
Adding flit 108859 as NACK at time 2649
Additional hops: 4261
Adding flit 92565 as NACK at time 2650
Reenqueueing errored packet 81177 at time 2653
Reenqueueing errored packet 79080 at time 2654
Reenqueueing errored packet 108859 at time 2656
Additional hops: 4266
Adding flit 97222 as NACK at time 2658
Reenqueueing errored packet 90804 at time 2662
Reenqueueing errored packet 92565 at time 2663
Additional hops: 4272
Adding flit 78247 as NACK at time 2666
Additional hops: 4280
Adding flit 67294 as NACK at time 2668
Reenqueueing errored packet 97222 at time 2669
Additional hops: 4282
Adding flit 110603 as NACK at time 2671
Additional hops: 4287
Adding flit 102320 as NACK at time 2671
Additional hops: 4295
Adding flit 66383 as NACK at time 2673
Reenqueueing errored packet 110603 at time 2676
Reenqueueing errored packet 78247 at time 2679
Additional hops: 4298
Adding flit 99381 as NACK at time 2681
Reenqueueing errored packet 102320 at time 2682
Reenqueueing errored packet 67294 at time 2685
Additional hops: 4306
Adding flit 96081 as NACK at time 2686
Reenqueueing errored packet 99381 at time 2688
Reenqueueing errored packet 66383 at time 2690
Additional hops: 4318
Adding flit 68104 as NACK at time 2696
Additional hops: 4326
Adding flit 91867 as NACK at time 2697
Additional hops: 4330
Adding flit 105700 as NACK at time 2697
Reenqueueing errored packet 96081 at time 2703
Additional hops: 4333
Adding flit 111678 as NACK at time 2703
Reenqueueing errored packet 105700 at time 2706
Additional hops: 4345
Adding flit 67628 as NACK at time 2709
Reenqueueing errored packet 111678 at time 2710
Additional hops: 4350
Adding flit 96753 as NACK at time 2713
Additional hops: 4358
Adding flit 93960 as NACK at time 2713
Reenqueueing errored packet 91867 at time 2714
Reenqueueing errored packet 68104 at time 2721
Additional hops: 4365
Adding flit 82979 as NACK at time 2722
Additional hops: 4370
Adding flit 80507 as NACK at time 2722
Reenqueueing errored packet 96753 at time 2724
Additional hops: 4377
Adding flit 78756 as NACK at time 2729
Additional hops: 4380
Adding flit 112519 as NACK at time 2729
Reenqueueing errored packet 93960 at time 2730
Additional hops: 4388
Adding flit 79491 as NACK at time 2731
Reenqueueing errored packet 80507 at time 2733
Additional hops: 4390
Adding flit 113250 as NACK at time 2733
Additional hops: 4396
Adding flit 101514 as NACK at time 2733
Reenqueueing errored packet 67628 at time 2734
Additional hops: 4403
Adding flit 86653 as NACK at time 2735
Reenqueueing errored packet 112519 at time 2736
Reenqueueing errored packet 82979 at time 2737
Reenqueueing errored packet 113250 at time 2738
Additional hops: 4414
Adding flit 66332 as NACK at time 2738
Additional hops: 4421
Adding flit 94362 as NACK at time 2740
Additional hops: 4431
Adding flit 86885 as NACK at time 2742
Additional hops: 4437
Adding flit 102052 as NACK at time 2742
Additional hops: 4445
Adding flit 73262 as NACK at time 2743
Reenqueueing errored packet 78756 at time 2744
Reenqueueing errored packet 101514 at time 2746
Reenqueueing errored packet 79491 at time 2748
Reenqueueing errored packet 86653 at time 2750
Reenqueueing errored packet 102052 at time 2755
Reenqueueing errored packet 94362 at time 2755
Additional hops: 4450
Adding flit 97915 as NACK at time 2758
Reenqueueing errored packet 73262 at time 2760
Reenqueueing errored packet 66332 at time 2761
Reenqueueing errored packet 86885 at time 2763
Reenqueueing errored packet 97915 at time 2769
Additional hops: 4459
Adding flit 97221 as NACK at time 2770
Additional hops: 4467
Adding flit 81332 as NACK at time 2773
Additional hops: 4476
Adding flit 78191 as NACK at time 2776
Reenqueueing errored packet 97221 at time 2789
Reenqueueing errored packet 81332 at time 2790
Reenqueueing errored packet 78191 at time 2795
Additional hops: 4485
Adding flit 86561 as NACK at time 2796
Additional hops: 4498
Adding flit 71171 as NACK at time 2801
Additional hops: 4505
Adding flit 100660 as NACK at time 2805
Additional hops: 4507
Adding flit 116265 as NACK at time 2805
Additional hops: 4513
Adding flit 83723 as NACK at time 2808
Reenqueueing errored packet 116265 at time 2810
Additional hops: 4522
Adding flit 71507 as NACK at time 2810
Additional hops: 4528
Adding flit 83977 as NACK at time 2811
Additional hops: 4533
Adding flit 85397 as NACK at time 2813
Reenqueueing errored packet 86561 at time 2815
Reenqueueing errored packet 100660 at time 2820
Additional hops: 4541
Adding flit 97401 as NACK at time 2820
Reenqueueing errored packet 83723 at time 2821
Reenqueueing errored packet 85397 at time 2824
Reenqueueing errored packet 83977 at time 2824
Additional hops: 4554
Adding flit 73931 as NACK at time 2827
Reenqueueing errored packet 71171 at time 2828
Reenqueueing errored packet 71507 at time 2829
Additional hops: 4564
Adding flit 84470 as NACK at time 2830
Additional hops: 4569
Adding flit 116269 as NACK at time 2832
Additional hops: 4576
Adding flit 83011 as NACK at time 2833
Additional hops: 4586
Adding flit 72000 as NACK at time 2836
Reenqueueing errored packet 97401 at time 2837
Additional hops: 4597
Adding flit 98717 as NACK at time 2839
Reenqueueing errored packet 116269 at time 2843
Additional hops: 4604
Adding flit 95270 as NACK at time 2844
Additional hops: 4611
Adding flit 83851 as NACK at time 2845
Reenqueueing errored packet 83011 at time 2848
Additional hops: 4621
Adding flit 69418 as NACK at time 2849
Additional hops: 4628
Adding flit 101662 as NACK at time 2850
Reenqueueing errored packet 84470 at time 2851
Reenqueueing errored packet 73931 at time 2854
Reenqueueing errored packet 72000 at time 2857
Reenqueueing errored packet 95270 at time 2859
Reenqueueing errored packet 83851 at time 2860
Additional hops: 4637
Adding flit 79382 as NACK at time 2860
Reenqueueing errored packet 98717 at time 2862
Additional hops: 4646
Adding flit 89741 as NACK at time 2863
Additional hops: 4651
Adding flit 105779 as NACK at time 2863
Additional hops: 4657
Adding flit 85988 as NACK at time 2864
Reenqueueing errored packet 101662 at time 2865
Reenqueueing errored packet 69418 at time 2870
Additional hops: 4661
Adding flit 107298 as NACK at time 2871
Reenqueueing errored packet 105779 at time 2874
Reenqueueing errored packet 85988 at time 2877
Reenqueueing errored packet 79382 at time 2879
Reenqueueing errored packet 107298 at time 2880
Additional hops: 4670
Adding flit 78684 as NACK at time 2880
Reenqueueing errored packet 89741 at time 2882
Additional hops: 4674
Adding flit 107434 as NACK at time 2895
Additional hops: 4684
Adding flit 88509 as NACK at time 2898
Reenqueueing errored packet 78684 at time 2899
Additional hops: 4689
Adding flit 118539 as NACK at time 2902
Reenqueueing errored packet 107434 at time 2904
Additional hops: 4693
Adding flit 100424 as NACK at time 2905
Additional hops: 4704
Adding flit 72903 as NACK at time 2906
Additional hops: 4709
Adding flit 83218 as NACK at time 2907
Additional hops: 4716
Adding flit 86912 as NACK at time 2908
Reenqueueing errored packet 118539 at time 2913
Reenqueueing errored packet 100424 at time 2914
Reenqueueing errored packet 83218 at time 2918
Reenqueueing errored packet 88509 at time 2919
Additional hops: 4719
Adding flit 112694 as NACK at time 2920
Reenqueueing errored packet 86912 at time 2923
Reenqueueing errored packet 112694 at time 2927
Reenqueueing errored packet 72903 at time 2929
Additional hops: 4727
Adding flit 89337 as NACK at time 2935
Additional hops: 4734
Adding flit 86216 as NACK at time 2938
Additional hops: 4744
Adding flit 91454 as NACK at time 2939
Additional hops: 4749
Adding flit 117497 as NACK at time 2939
Additional hops: 4759
Adding flit 80791 as NACK at time 2947
Reenqueueing errored packet 117497 at time 2950
Reenqueueing errored packet 89337 at time 2952
Reenqueueing errored packet 86216 at time 2953
Reenqueueing errored packet 91454 at time 2960
Additional hops: 4764
Adding flit 112832 as NACK at time 2964
Reenqueueing errored packet 80791 at time 2968
Additional hops: 4774
Adding flit 74633 as NACK at time 2969
Additional hops: 4781
Adding flit 86215 as NACK at time 2970
Additional hops: 4786
Adding flit 91033 as NACK at time 2970
Additional hops: 4791
Adding flit 115456 as NACK at time 2971
Reenqueueing errored packet 112832 at time 2975
Additional hops: 4799
Adding flit 75068 as NACK at time 2977
Reenqueueing errored packet 91033 at time 2981
Reenqueueing errored packet 115456 at time 2982
Additional hops: 4810
Adding flit 84169 as NACK at time 2982
Additional hops: 4815
Adding flit 93751 as NACK at time 2982
Reenqueueing errored packet 86215 at time 2985
Additional hops: 4822
Adding flit 101921 as NACK at time 2989
Reenqueueing errored packet 74633 at time 2990
Reenqueueing errored packet 93751 at time 2993
Reenqueueing errored packet 75068 at time 2994
Additional hops: 4830
Adding flit 86552 as NACK at time 3003
Reenqueueing errored packet 101921 at time 3004
Additional hops: 4836
Adding flit 91136 as NACK at time 3004
Reenqueueing errored packet 84169 at time 3005
Additional hops: 4839
Adding flit 124518 as NACK at time 3006
Additional hops: 4847
Adding flit 87004 as NACK at time 3012
Reenqueueing errored packet 124518 at time 3013
Additional hops: 4848
Adding flit 125073 as NACK at time 3013
Additional hops: 4853
Adding flit 92796 as NACK at time 3014
Reenqueueing errored packet 125073 at time 3016
Reenqueueing errored packet 91136 at time 3017
Reenqueueing errored packet 86552 at time 3020
Reenqueueing errored packet 92796 at time 3025
Additional hops: 4863
Adding flit 92807 as NACK at time 3025
Reenqueueing errored packet 87004 at time 3029
Additional hops: 4875
Adding flit 72814 as NACK at time 3030
Additional hops: 4880
Adding flit 118871 as NACK at time 3034
Reenqueueing errored packet 118871 at time 3045
Reenqueueing errored packet 92807 at time 3046
Additional hops: 4886
Adding flit 103871 as NACK at time 3048
Additional hops: 4890
Adding flit 126092 as NACK at time 3049
Additional hops: 4893
Adding flit 117006 as NACK at time 3051
Additional hops: 4899
Adding flit 108394 as NACK at time 3051
Additional hops: 4908
Adding flit 89572 as NACK at time 3052
Reenqueueing errored packet 72814 at time 3055
Additional hops: 4916
Adding flit 102816 as NACK at time 3056
Additional hops: 4925
Adding flit 93449 as NACK at time 3057
Reenqueueing errored packet 117006 at time 3058
Reenqueueing errored packet 126092 at time 3058
Reenqueueing errored packet 103871 at time 3061
Additional hops: 4933
Adding flit 74921 as NACK at time 3061
Additional hops: 4942
Adding flit 73066 as NACK at time 3062
Reenqueueing errored packet 108394 at time 3064
Reenqueueing errored packet 89572 at time 3071
Additional hops: 4947
Adding flit 126963 as NACK at time 3071
Reenqueueing errored packet 102816 at time 3073
Additional hops: 4951
Adding flit 106018 as NACK at time 3075
Reenqueueing errored packet 93449 at time 3076
Additional hops: 4960
Adding flit 75569 as NACK at time 3077
Reenqueueing errored packet 74921 at time 3078
Additional hops: 4964
Adding flit 117480 as NACK at time 3078
Reenqueueing errored packet 73066 at time 3081
Additional hops: 4969
Adding flit 122023 as NACK at time 3081
Reenqueueing errored packet 126963 at time 3082
Additional hops: 4977
Adding flit 101907 as NACK at time 3083
Reenqueueing errored packet 106018 at time 3084
Reenqueueing errored packet 117480 at time 3087
Additional hops: 4981
Adding flit 118431 as NACK at time 3088
Reenqueueing errored packet 122023 at time 3092
Additional hops: 4990
Adding flit 77524 as NACK at time 3092
Additional hops: 5001
Adding flit 83030 as NACK at time 3094
Reenqueueing errored packet 75569 at time 3096
Additional hops: 5012
Adding flit 77877 as NACK at time 3096
Reenqueueing errored packet 118431 at time 3097
Additional hops: 5020
Adding flit 83355 as NACK at time 3097
Reenqueueing errored packet 101907 at time 3100
Additional hops: 5027
Adding flit 118922 as NACK at time 3100
Additional hops: 5038
Adding flit 96350 as NACK at time 3101
Additional hops: 5043
[...]
Adding flit 212134 as NACK at time 9170
Reenqueueing errored packet 213783 at time 9171
Additional hops: 14744
Adding flit 220167 as NACK at time 9172
Reenqueueing errored packet 331641 at time 9178
Additional hops: 14753
Adding flit 237450 as NACK at time 9182
Additional hops: 14760
Adding flit 337598 as NACK at time 9184
Additional hops: 14769
Adding flit 278118 as NACK at time 9192
Reenqueueing errored packet 337598 at time 9199
Additional hops: 14776
Adding flit 332036 as NACK at time 9203
Additional hops: 14783
Adding flit 333021 as NACK at time 9212
Reenqueueing errored packet 332036 at time 9218
Additional hops: 14786
Adding flit 356802 as NACK at time 9220
Reenqueueing errored packet 356802 at time 9227
Reenqueueing errored packet 333021 at time 9227
Additional hops: 14797
Adding flit 221719 as NACK at time 9233
Additional hops: 14804
Adding flit 340298 as NACK at time 9235
Additional hops: 14810
Adding flit 242676 as NACK at time 9235
Additional hops: 14820
Adding flit 222172 as NACK at time 9236
Additional hops: 14826
Adding flit 255506 as NACK at time 9242
Additional hops: 14833
Adding flit 240518 as NACK at time 9246
Reenqueueing errored packet 340298 at time 9250
Reenqueueing errored packet 255506 at time 9255
Additional hops: 14842
Adding flit 303717 as NACK at time 9255
Reenqueueing errored packet 222172 at time 9257
Additional hops: 14850
Adding flit 328120 as NACK at time 9259
Additional hops: 14855
Adding flit 233146 as NACK at time 9263
Additional hops: 14857
Adding flit 313634 as NACK at time 9270
Additional hops: 14863
Adding flit 345491 as NACK at time 9272
Reenqueueing errored packet 233146 at time 9274
Reenqueueing errored packet 303717 at time 9274
Reenqueueing errored packet 328120 at time 9276
Additional hops: 14872
Adding flit 230715 as NACK at time 9277
Additional hops: 14875
Adding flit 343762 as NACK at time 9280
Reenqueueing errored packet 345491 at time 9285
Reenqueueing errored packet 343762 at time 9287
Additional hops: 14880
Adding flit 346196 as NACK at time 9287
Additional hops: 14886
Adding flit 233834 as NACK at time 9297
Reenqueueing errored packet 346196 at time 9298
Additional hops: 14895
Adding flit 234770 as NACK at time 9306
Reenqueueing errored packet 233834 at time 9310
Additional hops: 14907
Adding flit 296473 as NACK at time 9316
Additional hops: 14913
Adding flit 342375 as NACK at time 9321
Reenqueueing errored packet 234770 at time 9325
Additional hops: 14919
Adding flit 294821 as NACK at time 9325
Additional hops: 14929
Adding flit 240733 as NACK at time 9327
Additional hops: 14936
Adding flit 317427 as NACK at time 9333
Additional hops: 14941
Adding flit 309669 as NACK at time 9333
Reenqueueing errored packet 342375 at time 9334
Additional hops: 14950
Adding flit 304811 as NACK at time 9334
Reenqueueing errored packet 294821 at time 9338
Reenqueueing errored packet 296473 at time 9341
Additional hops: 14958
Adding flit 319646 as NACK at time 9343
Reenqueueing errored packet 309669 at time 9344
Additional hops: 14963
Adding flit 347540 as NACK at time 9347
Reenqueueing errored packet 317427 at time 9348
Reenqueueing errored packet 304811 at time 9353
Additional hops: 14974
Adding flit 313068 as NACK at time 9354
Reenqueueing errored packet 347540 at time 9358
Reenqueueing errored packet 319646 at time 9360
Additional hops: 14978
Adding flit 346625 as NACK at time 9372
Reenqueueing errored packet 313068 at time 9377
Additional hops: 14983
Adding flit 316430 as NACK at time 9377
Reenqueueing errored packet 346625 at time 9381
Additional hops: 14993
Adding flit 227339 as NACK at time 9384
Additional hops: 15002
Adding flit 346630 as NACK at time 9390
Additional hops: 15008
Adding flit 250731 as NACK at time 9395
Additional hops: 15014
Adding flit 350267 as NACK at time 9402
Additional hops: 15022
Adding flit 238147 as NACK at time 9404
Additional hops: 15028
Adding flit 347405 as NACK at time 9405
Reenqueueing errored packet 346630 at time 9409
Additional hops: 15036
Adding flit 231654 as NACK at time 9410
Reenqueueing errored packet 350267 at time 9415
Additional hops: 15044
Adding flit 348283 as NACK at time 9415
Reenqueueing errored packet 347405 at time 9418
Additional hops: 15052
Adding flit 261351 as NACK at time 9423
Reenqueueing errored packet 348283 at time 9432
Additional hops: 15056
Adding flit 363990 as NACK at time 9432
Additional hops: 15064
Adding flit 321626 as NACK at time 9439
Reenqueueing errored packet 261351 at time 9440
Reenqueueing errored packet 363990 at time 9441
Additional hops: 15069
Adding flit 328351 as NACK at time 9450
Reenqueueing errored packet 321626 at time 9456
Additional hops: 15077
Adding flit 340201 as NACK at time 9457
Additional hops: 15085
Adding flit 344927 as NACK at time 9460
Reenqueueing errored packet 328351 at time 9461
Additional hops: 15097
Adding flit 304034 as NACK at time 9466
Additional hops: 15107
Adding flit 244680 as NACK at time 9469
Reenqueueing errored packet 340201 at time 9474
Additional hops: 15118
Adding flit 227800 as NACK at time 9475
Additional hops: 15126
Adding flit 335317 as NACK at time 9476
Reenqueueing errored packet 344927 at time 9477
Additional hops: 15129
Adding flit 364941 as NACK at time 9478
Reenqueueing errored packet 364941 at time 9485
Additional hops: 15136
Adding flit 333439 as NACK at time 9489
Additional hops: 15141
Adding flit 353069 as NACK at time 9489
Reenqueueing errored packet 244680 at time 9490
Reenqueueing errored packet 304034 at time 9491
Additional hops: 15146
Adding flit 247392 as NACK at time 9492
Reenqueueing errored packet 335317 at time 9493
Reenqueueing errored packet 353069 at time 9500
Additional hops: 15154
Adding flit 356389 as NACK at time 9503
Reenqueueing errored packet 333439 at time 9504
Additional hops: 15159
Adding flit 349851 as NACK at time 9507
Additional hops: 15166
Adding flit 232088 as NACK at time 9510
Additional hops: 15173
Adding flit 349977 as NACK at time 9510
Additional hops: 15180
Adding flit 271406 as NACK at time 9516
Reenqueueing errored packet 349851 at time 9518
Reenqueueing errored packet 356389 at time 9520
Reenqueueing errored packet 349977 at time 9525
Additional hops: 15185
Adding flit 249247 as NACK at time 9530
Additional hops: 15189
Adding flit 265402 as NACK at time 9533
Additional hops: 15200
Adding flit 298532 as NACK at time 9535
Additional hops: 15208
Adding flit 317852 as NACK at time 9539
Additional hops: 15216
Adding flit 336461 as NACK at time 9540
Additional hops: 15223
Adding flit 328827 as NACK at time 9541
Additional hops: 15236
Adding flit 220529 as NACK at time 9544
Additional hops: 15240
Adding flit 351792 as NACK at time 9547
Additional hops: 15249
Adding flit 330272 as NACK at time 9550
Reenqueueing errored packet 351792 at time 9556
Reenqueueing errored packet 328827 at time 9556
Reenqueueing errored packet 317852 at time 9556
Reenqueueing errored packet 336461 at time 9557
Reenqueueing errored packet 298532 at time 9558
Additional hops: 15255
Adding flit 242208 as NACK at time 9560
Additional hops: 15261
Adding flit 324714 as NACK at time 9564
Additional hops: 15267
Adding flit 330502 as NACK at time 9568
Reenqueueing errored packet 330272 at time 9569
Additional hops: 15276
Adding flit 326456 as NACK at time 9573
Reenqueueing errored packet 324714 at time 9577
Reenqueueing errored packet 330502 at time 9581
Additional hops: 15285
Adding flit 235352 as NACK at time 9587
Reenqueueing errored packet 326456 at time 9592
Additional hops: 15292
Adding flit 332588 as NACK at time 9602
Additional hops: 15298
Adding flit 369673 as NACK at time 9605
Reenqueueing errored packet 235352 at time 9606
Additional hops: 15303
Adding flit 348383 as NACK at time 9608
Additional hops: 15308
Adding flit 352751 as NACK at time 9608
Additional hops: 15313
Adding flit 336756 as NACK at time 9610
Additional hops: 15322
Adding flit 352720 as NACK at time 9612
Additional hops: 15328
Adding flit 250007 as NACK at time 9612
Reenqueueing errored packet 332588 at time 9617
Additional hops: 15331
Adding flit 370499 as NACK at time 9617
Reenqueueing errored packet 369673 at time 9618
Reenqueueing errored packet 352751 at time 9619
Reenqueueing errored packet 348383 at time 9619
Reenqueueing errored packet 336756 at time 9621
Reenqueueing errored packet 370499 at time 9624
Additional hops: 15343
Adding flit 334405 as NACK at time 9625
Additional hops: 15348
Adding flit 354312 as NACK at time 9626
Additional hops: 15356
Adding flit 240049 as NACK at time 9627
Reenqueueing errored packet 352720 at time 9631
Additional hops: 15359
Adding flit 355386 as NACK at time 9635
Reenqueueing errored packet 354312 at time 9637
Additional hops: 15365
Adding flit 250200 as NACK at time 9638
Additional hops: 15373
Adding flit 257188 as NACK at time 9640
Additional hops: 15379
Adding flit 350570 as NACK at time 9640
Reenqueueing errored packet 355386 at time 9642
Additional hops: 15389
Adding flit 232579 as NACK at time 9642
Reenqueueing errored packet 240049 at time 9644
Additional hops: 15394
Adding flit 370594 as NACK at time 9645
Additional hops: 15400
Adding flit 332361 as NACK at time 9645
Reenqueueing errored packet 334405 at time 9650
Additional hops: 15410
Adding flit 341421 as NACK at time 9651
Additional hops: 15420
Adding flit 329902 as NACK at time 9651
Reenqueueing errored packet 350570 at time 9653
Additional hops: 15429
Adding flit 343228 as NACK at time 9653
Reenqueueing errored packet 370594 at time 9656
Additional hops: 15435
Adding flit 359667 as NACK at time 9656
Additional hops: 15448
Adding flit 219909 as NACK at time 9656
Reenqueueing errored packet 257188 at time 9657
Reenqueueing errored packet 332361 at time 9658
Additional hops: 15454
Adding flit 351264 as NACK at time 9659
Additional hops: 15463
Adding flit 241731 as NACK at time 9661
Additional hops: 15468
Adding flit 334877 as NACK at time 9662
Additional hops: 15473
Adding flit 264757 as NACK at time 9665
Additional hops: 15485
Adding flit 224581 as NACK at time 9666
Additional hops: 15493
Adding flit 322243 as NACK at time 9668
Reenqueueing errored packet 359667 at time 9669
Additional hops: 15502
Adding flit 339088 as NACK at time 9670
Reenqueueing errored packet 351264 at time 9672
Reenqueueing errored packet 343228 at time 9672
Reenqueueing errored packet 329902 at time 9672
Reenqueueing errored packet 341421 at time 9672
Reenqueueing errored packet 334877 at time 9673
Additional hops: 15512
Adding flit 351616 as NACK at time 9675
Reenqueueing errored packet 264757 at time 9676
Additional hops: 15520
Adding flit 341937 as NACK at time 9676
Additional hops: 15523
Adding flit 372692 as NACK at time 9678
Reenqueueing errored packet 241731 at time 9680
Additional hops: 15531
Adding flit 323939 as NACK at time 9682
Additional hops: 15540
Adding flit 338618 as NACK at time 9683
Additional hops: 15543
Adding flit 289278 as NACK at time 9684
Reenqueueing errored packet 372692 at time 9685
Reenqueueing errored packet 322243 at time 9685
Reenqueueing errored packet 339088 at time 9689
Reenqueueing errored packet 341937 at time 9693
Reenqueueing errored packet 351616 at time 9696
Reenqueueing errored packet 323939 at time 9699
Additional hops: 15548
Adding flit 307676 as NACK at time 9700
Additional hops: 15554
Adding flit 328922 as NACK at time 9700
Reenqueueing errored packet 338618 at time 9702
Additional hops: 15566
Adding flit 244049 as NACK at time 9704
Additional hops: 15574
Adding flit 246877 as NACK at time 9705
Additional hops: 15583
Adding flit 247171 as NACK at time 9706
Reenqueueing errored packet 328922 at time 9713
Additional hops: 15591
Adding flit 320610 as NACK at time 9735
Additional hops: 15598
Adding flit 353708 as NACK at time 9736
Additional hops: 15602
Adding flit 358451 as NACK at time 9737
Additional hops: 15615
Adding flit 217794 as NACK at time 9737
Additional hops: 15623
Adding flit 246436 as NACK at time 9741
Reenqueueing errored packet 358451 at time 9746
Additional hops: 15630
Adding flit 328681 as NACK at time 9746
Additional hops: 15633
Adding flit 358804 as NACK at time 9746
Reenqueueing errored packet 353708 at time 9751
Reenqueueing errored packet 320610 at time 9752
Additional hops: 15638
Adding flit 238022 as NACK at time 9752
Reenqueueing errored packet 358804 at time 9753
Additional hops: 15648
Adding flit 346196 as NACK at time 9754
Reenqueueing errored packet 328681 at time 9761
Additional hops: 15654
Adding flit 333304 as NACK at time 9761
Additional hops: 15659
Adding flit 307958 as NACK at time 9761
Additional hops: 15664
Adding flit 360623 as NACK at time 9770
Reenqueueing errored packet 333304 at time 9774
Reenqueueing errored packet 346196 at time 9775
Additional hops: 15669
Adding flit 322720 as NACK at time 9776
Additional hops: 15680
Adding flit 231597 as NACK at time 9778
Reenqueueing errored packet 360623 at time 9781
Additional hops: 15691
Adding flit 234496 as NACK at time 9782
Additional hops: 15700
Adding flit 313394 as NACK at time 9784
Additional hops: 15702
Adding flit 373621 as NACK at time 9796
Additional hops: 15710
Adding flit 352724 as NACK at time 9796
Reenqueueing errored packet 373621 at time 9801
Additional hops: 15719
Adding flit 352980 as NACK at time 9802
Reenqueueing errored packet 313394 at time 9803
Additional hops: 15722
Adding flit 281969 as NACK at time 9804
Additional hops: 15730
Adding flit 353165 as NACK at time 9811
Reenqueueing errored packet 352724 at time 9813
Additional hops: 15735
Adding flit 359956 as NACK at time 9814
Additional hops: 15740
Adding flit 372952 as NACK at time 9814
Additional hops: 15743
Adding flit 369738 as NACK at time 9817
Additional hops: 15751
Adding flit 239922 as NACK at time 9818
Additional hops: 15760
Adding flit 336154 as NACK at time 9819
Additional hops: 15768
Adding flit 321510 as NACK at time 9820
Reenqueueing errored packet 352980 at time 9821
Additional hops: 15777
Adding flit 249113 as NACK at time 9822
Reenqueueing errored packet 369738 at time 9824
Additional hops: 15784
Adding flit 356269 as NACK at time 9824
Reenqueueing errored packet 372952 at time 9825
Reenqueueing errored packet 359956 at time 9825
Additional hops: 15789
Adding flit 332788 as NACK at time 9825
Additional hops: 15799
Adding flit 341660 as NACK at time 9825
Reenqueueing errored packet 353165 at time 9828
Reenqueueing errored packet 239922 at time 9835
Reenqueueing errored packet 332788 at time 9836
Additional hops: 15805
Adding flit 350516 as NACK at time 9836
Additional hops: 15812
Adding flit 340642 as NACK at time 9836
Reenqueueing errored packet 321510 at time 9837
Reenqueueing errored packet 336154 at time 9838
Reenqueueing errored packet 356269 at time 9839
Additional hops: 15820
Adding flit 362978 as NACK at time 9840
Additional hops: 15832
Adding flit 241280 as NACK at time 9842
Reenqueueing errored packet 341660 at time 9846
Additional hops: 15835
Adding flit 378078 as NACK at time 9848
Reenqueueing errored packet 350516 at time 9849
Reenqueueing errored packet 340642 at time 9851
Additional hops: 15838
Adding flit 301593 as NACK at time 9852
Additional hops: 15846
Adding flit 335018 as NACK at time 9854
Additional hops: 15850
Adding flit 267934 as NACK at time 9854
Reenqueueing errored packet 378078 at time 9855
Reenqueueing errored packet 362978 at time 9857
Additional hops: 15857
Adding flit 283965 as NACK at time 9861
Additional hops: 15865
Adding flit 265301 as NACK at time 9863
Additional hops: 15876
Adding flit 245366 as NACK at time 9870
Reenqueueing errored packet 335018 at time 9871
Additional hops: 15886
Adding flit 250278 as NACK at time 9871
Additional hops: 15895
Adding flit 250375 as NACK at time 9878
Additional hops: 15903
Adding flit 240015 as NACK at time 9884
Additional hops: 15910
Adding flit 346971 as NACK at time 9887
Additional hops: 15916
Adding flit 354864 as NACK at time 9890
Additional hops: 15920
Adding flit 349170 as NACK at time 9891
Additional hops: 15928
Adding flit 246333 as NACK at time 9897
Reenqueueing errored packet 349170 at time 9900
Additional hops: 15940
Adding flit 232052 as NACK at time 9901
Reenqueueing errored packet 346971 at time 9902
Reenqueueing errored packet 354864 at time 9903
Additional hops: 15948
Adding flit 251124 as NACK at time 9904
Additional hops: 15956
Adding flit 230747 as NACK at time 9908
Additional hops: 15964
Adding flit 253415 as NACK at time 9909
Additional hops: 15969
Adding flit 377767 as NACK at time 9911
Additional hops: 15974
Adding flit 338719 as NACK at time 9911
Additional hops: 15983
Adding flit 346945 as NACK at time 9917
Additional hops: 15987
Adding flit 360366 as NACK at time 9918
Additional hops: 15992
Adding flit 352054 as NACK at time 9919
Reenqueueing errored packet 251124 at time 9921
Reenqueueing errored packet 338719 at time 9922
Reenqueueing errored packet 377767 at time 9922
Additional hops: 15995
Adding flit 334047 as NACK at time 9926
Reenqueueing errored packet 360366 at time 9927
Additional hops: 15998
Adding flit 366994 as NACK at time 9928
Additional hops: 16009
Adding flit 315087 as NACK at time 9929
Reenqueueing errored packet 352054 at time 9930
Reenqueueing errored packet 334047 at time 9933
Reenqueueing errored packet 366994 at time 9935
Reenqueueing errored packet 346945 at time 9936
Additional hops: 16018
Adding flit 241970 as NACK at time 9936
Additional hops: 16022
Adding flit 378889 as NACK at time 9936
Additional hops: 16031
Adding flit 276909 as NACK at time 9939
Additional hops: 16038
Adding flit 257494 as NACK at time 9944
Reenqueueing errored packet 378889 at time 9945
Additional hops: 16046
Adding flit 239704 as NACK at time 9946
Additional hops: 16057
Adding flit 233870 as NACK at time 9948
Additional hops: 16062
Adding flit 364096 as NACK at time 9949
Reenqueueing errored packet 315087 at time 9952
Additional hops: 16068
Adding flit 351115 as NACK at time 9952
Additional hops: 16074
Adding flit 340590 as NACK at time 9954
Reenqueueing errored packet 257494 at time 9959
Additional hops: 16079
Adding flit 269102 as NACK at time 9959
Reenqueueing errored packet 364096 at time 9960
Reenqueueing errored packet 351115 at time 9965
Reenqueueing errored packet 340590 at time 9967
Additional hops: 16087
Adding flit 247042 as NACK at time 9968
Reenqueueing errored packet 269102 at time 9970
Additional hops: 16093
Adding flit 365207 as NACK at time 9970
Additional hops: 16105
Adding flit 344176 as NACK at time 9971
Additional hops: 16113
Adding flit 368656 as NACK at time 9974
Additional hops: 16118
Adding flit 365267 as NACK at time 9981
Additional hops: 16128
Adding flit 338938 as NACK at time 9982
Reenqueueing errored packet 365207 at time 9983
Additional hops: 16139
Adding flit 236373 as NACK at time 9986
Reenqueueing errored packet 368656 at time 9991
Reenqueueing errored packet 365267 at time 9992
Reenqueueing errored packet 344176 at time 9996
Additional hops: 16143
Adding flit 315381 as NACK at time 9998
Additional hops: 16148
Adding flit 350246 as NACK at time 9998
Class 0:
Packet latency average = 902.855
	minimum = 5
	maximum = 6776
Network latency average = 889.642
	minimum = 5
	maximum = 4762
Slowest packet = 2522
Flit latency average = 889.642
	minimum = 5
	maximum = 4762
Slowest flit = 216265
Fragmentation average = 0
	minimum = 0
	maximum = 0
Injected packet rate average = 0.602408
	minimum = 0.5131 (at node 14)
	maximum = 0.6663 (at node 59)
Accepted packet rate average = 0.509817
	minimum = 0.4935 (at node 36)
	maximum = 0.5254 (at node 14)
Injected flit rate average = 0.602408
	minimum = 0.5131 (at node 14)
	maximum = 0.6663 (at node 59)
Accepted flit rate average= 0.509817
	minimum = 0.4935 (at node 36)
	maximum = 0.5254 (at node 14)
Injected packet length average = 1
Accepted packet length average = 1
Total in-flight flits = 59485 (0 measured)
latency change    = 1
throughput change = 1
Average latency for class 0 exceeded 500 cycles. Aborting simulation.
Too many sample periods needed to converge
Simulation unstable, ending ...
Total run time 94.8369
