BEGIN Configuration File: examples/ecc_mesh88_config_1_0.200_link_1
// $Id$

// Copyright (c) 2007-2015, Trustees of The Leland Stanford Junior University
// All rights reserved.
//
// Redistribution and use in source and binary forms, with or without
// modification, are permitted provided that the following conditions are met:
//
// Redistributions of source code must retain the above copyright notice, this
// list of conditions and the following disclaimer.
// Redistributions in binary form must reproduce the above copyright notice,
// this list of conditions and the following disclaimer in the documentation
// and/or other materials provided with the distribution.
//
// THIS SOFTWARE IS PROVIDED BY THE COPYRIGHT HOLDERS AND CONTRIBUTORS "AS IS"
// AND ANY EXPRESS OR IMPLIED WARRANTIES, INCLUDING, BUT NOT LIMITED TO, THE
// IMPLIED WARRANTIES OF MERCHANTABILITY AND FITNESS FOR A PARTICULAR PURPOSE
// ARE DISCLAIMED. IN NO EVENT SHALL THE COPYRIGHT OWNER OR CONTRIBUTORS BE
// LIABLE FOR ANY DIRECT, INDIRECT, INCIDENTAL, SPECIAL, EXEMPLARY, OR
// CONSEQUENTIAL DAMAGES (INCLUDING, BUT NOT LIMITED TO, PROCUREMENT OF
// SUBSTITUTE GOODS OR SERVICES; LOSS OF USE, DATA, OR PROFITS; OR BUSINESS
// INTERRUPTION) HOWEVER CAUSED AND ON ANY THEORY OF LIABILITY, WHETHER IN
// CONTRACT, STRICT LIABILITY, OR TORT (INCLUDING NEGLIGENCE OR OTHERWISE)
// ARISING IN ANY WAY OUT OF THE USE OF THIS SOFTWARE, EVEN IF ADVISED OF THE
// POSSIBILITY OF SUCH DAMAGE.

// Dragonfly
//




vc_buf_size = 256;


wait_for_tail_credit = 0;

//
// Router architecture
//
vc_allocator = separable_input_first; 
sw_allocator = separable_input_first;
alloc_iters  = 1;

credit_delay   = 2;
routing_delay  = 0;
vc_alloc_delay = 1;
sw_alloc_delay = 1;
st_final_delay = 1;

input_speedup     = 1;
output_speedup    = 1;
internal_speedup  = 2.0;


warmup_periods = 3;
sim_count          = 1;

sample_period  = 10000;  


routing_function = dor;
num_vcs     = 2;

priority = none;
traffic       = uniform; 

injection_rate = 0.2;
packet_size = 1;
injection_rate_uses_flits=1;

topology = mesh;

k  = 8;
n  = 2;

fer = 1;
ecc = link;
correctable = 1;

watch_out=-;
watch_file = watch.txt;

ecc = link;

stats_out = examples/ecc_mesh88_config_1_0.200_link_1.m;

END Configuration File: examples/ecc_mesh88_config_1_0.200_link_1
Requeued flit 22
Requeued flit 23
Requeued flit 19
Requeued flit 8
Requeued flit 62
Requeued flit 105
Requeued flit 2
Requeued flit 25
Requeued flit 0
Requeued flit 108
Requeued flit 138
Requeued flit 14
Requeued flit 174
Requeued flit 31
Requeued flit 127
Requeued flit 131
Requeued flit 145
Requeued flit 100
Requeued flit 70
Requeued flit 231
Requeued flit 186
Requeued flit 50
Requeued flit 94
Requeued flit 51
Requeued flit 13
Requeued flit 183
Requeued flit 214
Requeued flit 149
Requeued flit 78
Requeued flit 227
Requeued flit 230
Requeued flit 194
Requeued flit 319
Requeued flit 40
Requeued flit 257
Requeued flit 109
Requeued flit 45
Requeued flit 229
Requeued flit 65
Requeued flit 298
Requeued flit 289
Requeued flit 290
Requeued flit 396
Requeued flit 168
Requeued flit 83
Requeued flit 384
Requeued flit 305
Requeued flit 400
Requeued flit 244
Requeued flit 448
Requeued flit 392
Requeued flit 352
Requeued flit 146
Requeued flit 221
Requeued flit 246
Requeued flit 372
Requeued flit 133
Requeued flit 335
Requeued flit 459
Requeued flit 191
Requeued flit 464
Requeued flit 350
Requeued flit 399
Requeued flit 419
Requeued flit 285
Requeued flit 226
Requeued flit 493
Requeued flit 522
Requeued flit 504
Requeued flit 485
Requeued flit 569
Requeued flit 562
Requeued flit 558
Requeued flit 586
Requeued flit 425
Requeued flit 556
Requeued flit 294
Requeued flit 527
Requeued flit 536
Requeued flit 476
Requeued flit 377
Requeued flit 389
Requeued flit 474
Requeued flit 491
Requeued flit 541
Requeued flit 551
Requeued flit 611
Requeued flit 644
Requeued flit 544
Requeued flit 342
Requeued flit 661
Requeued flit 270
Requeued flit 670
Requeued flit 273
Requeued flit 375
Requeued flit 398
Requeued flit 621
Requeued flit 531
Requeued flit 673
Requeued flit 285
Requeued flit 464
Requeued flit 422
Requeued flit 678
Requeued flit 539
Requeued flit 567
Requeued flit 728
Requeued flit 717
Requeued flit 510
Requeued flit 652
Requeued flit 625
Requeued flit 458
Requeued flit 713
Requeued flit 628
Requeued flit 376
Requeued flit 773
Requeued flit 785
Requeued flit 663
Requeued flit 792
Requeued flit 832
Requeued flit 784
Requeued flit 691
Requeued flit 811
Requeued flit 829
Requeued flit 704
Requeued flit 649
Requeued flit 742
Requeued flit 331
Requeued flit 671
Requeued flit 857
Requeued flit 517
Requeued flit 707
Requeued flit 791
Requeued flit 882
Requeued flit 676
Requeued flit 807
Requeued flit 714
Requeued flit 879
Requeued flit 941
Requeued flit 854
Requeued flit 861
Requeued flit 775
Requeued flit 682
Requeued flit 866
Requeued flit 925
Requeued flit 927
Requeued flit 907
Requeued flit 713
Requeued flit 855
Requeued flit 1036
Requeued flit 769
Requeued flit 772
Requeued flit 805
Requeued flit 920
Requeued flit 663
Requeued flit 868
Requeued flit 971
Requeued flit 1062
Requeued flit 1030
Requeued flit 1070
Requeued flit 709
Requeued flit 1104
Requeued flit 967
Requeued flit 1051
Requeued flit 1006
Requeued flit 852
Requeued flit 916
Requeued flit 940
Requeued flit 1038
Requeued flit 982
Requeued flit 1012
Requeued flit 974
Requeued flit 784
Requeued flit 1065
Requeued flit 864
Requeued flit 652
Requeued flit 1050
Requeued flit 882
Requeued flit 1184
Requeued flit 908
Requeued flit 993
Requeued flit 894
Requeued flit 1218
Requeued flit 874
Requeued flit 1082
Requeued flit 996
Requeued flit 1010
Requeued flit 1133
Requeued flit 904
Requeued flit 1174
Requeued flit 913
Requeued flit 1199
Requeued flit 765
Requeued flit 965
Requeued flit 1152
Requeued flit 1213
Requeued flit 1280
Requeued flit 1243
Requeued flit 1056
Requeued flit 903
Requeued flit 864
Requeued flit 1148
Requeued flit 1166
Requeued flit 1171
Requeued flit 1033
Requeued flit 1181
Requeued flit 1165
Requeued flit 1104
Requeued flit 1115
Requeued flit 1079
Requeued flit 879
Requeued flit 1282
Requeued flit 863
Requeued flit 928
Requeued flit 1219
Requeued flit 1203
Requeued flit 852
Requeued flit 1374
Requeued flit 1300
Requeued flit 1311
Requeued flit 1317
Requeued flit 1076
Requeued flit 1404
Requeued flit 1396
Requeued flit 1073
Requeued flit 1148
Requeued flit 1363
Requeued flit 1275
Requeued flit 1414
Requeued flit 1402
Requeued flit 1208
Requeued flit 1217
Requeued flit 1264
Requeued flit 1323
Requeued flit 1289
Requeued flit 1302
Requeued flit 1408
Requeued flit 1320
Requeued flit 1286
Requeued flit 1368
Requeued flit 1501
Requeued flit 1385
Requeued flit 1427
Requeued flit 1308
Requeued flit 1410
Requeued flit 1272
Requeued flit 1206
Requeued flit 1150
Requeued flit 1341
Requeued flit 1439
Requeued flit 1207
Requeued flit 1438
Requeued flit 1148
Requeued flit 1291
Requeued flit 1564
Requeued flit 1480
Requeued flit 1545
Requeued flit 1394
Requeued flit 1348
Requeued flit 1586
Requeued flit 1357
Requeued flit 1435
Requeued flit 1349
Requeued flit 1592
Requeued flit 1371
Requeued flit 1466
Requeued flit 1487
Requeued flit 1526
Requeued flit 1452
Requeued flit 1457
Requeued flit 1383
Requeued flit 1532
Requeued flit 1687
Requeued flit 1690
Requeued flit 1593
Requeued flit 1599
Requeued flit 1581
Requeued flit 1677
Requeued flit 1725
Requeued flit 1714
Requeued flit 1606
Requeued flit 1523
Requeued flit 1696
Requeued flit 1590
Requeued flit 1680
Requeued flit 1728
Requeued flit 1732
Requeued flit 1552
Requeued flit 1685
Requeued flit 1550
Requeued flit 1533
Requeued flit 1670
Requeued flit 1642
Requeued flit 1692
Requeued flit 1547
Requeued flit 1624
Requeued flit 1678
Requeued flit 1835
Requeued flit 1317
Requeued flit 1762
Requeued flit 1578
Requeued flit 1730
Requeued flit 1764
Requeued flit 1825
Requeued flit 1368
Requeued flit 1905
Requeued flit 1833
Requeued flit 1484
Requeued flit 1617
Requeued flit 1710
Requeued flit 1742
Requeued flit 1514
Requeued flit 1711
Requeued flit 1778
Requeued flit 1853
Requeued flit 1684
Requeued flit 1587
Requeued flit 1672
Requeued flit 1818
Requeued flit 1888
Requeued flit 1635
Requeued flit 1882
Requeued flit 1753
Requeued flit 1916
Requeued flit 1843
Requeued flit 1942
Requeued flit 1715
Requeued flit 1842
Requeued flit 1509
Requeued flit 1985
Requeued flit 1676
Requeued flit 2061
Requeued flit 1785
Requeued flit 1690
Requeued flit 1999
Requeued flit 2041
Requeued flit 1624
Requeued flit 1937
Requeued flit 2048
Requeued flit 1995
Requeued flit 2032
Requeued flit 1952
Requeued flit 1914
Requeued flit 1782
Requeued flit 1943
Requeued flit 1873
Requeued flit 2080
Requeued flit 2030
Requeued flit 1317
Requeued flit 1870
Requeued flit 2073
Requeued flit 1830
Requeued flit 1900
Requeued flit 2106
Requeued flit 2010
Requeued flit 1938
Requeued flit 1874
Requeued flit 1936
Requeued flit 1956
Requeued flit 2001
Requeued flit 2123
Requeued flit 1819
Requeued flit 1976
Requeued flit 1883
Requeued flit 1803
Requeued flit 1792
Requeued flit 2111
Requeued flit 1914
Requeued flit 2002
Requeued flit 1818
Requeued flit 2121
Requeued flit 2152
Requeued flit 2079
Requeued flit 2047
Requeued flit 2088
Requeued flit 2127
Requeued flit 1960
Requeued flit 2177
Requeued flit 2076
Requeued flit 1911
Requeued flit 2038
Requeued flit 2176
Requeued flit 2154
Requeued flit 2203
Requeued flit 2204
Requeued flit 2046
Requeued flit 1995
Requeued flit 2211
Requeued flit 2068
Requeued flit 2071
Requeued flit 2052
Requeued flit 2155
Requeued flit 2152
Requeued flit 2141
Requeued flit 2248
Requeued flit 1971
Requeued flit 2087
Requeued flit 2137
Requeued flit 1999
Requeued flit 2356
Requeued flit 2333
Requeued flit 1992
Requeued flit 2195
Requeued flit 2160
Requeued flit 2278
Requeued flit 2326
Requeued flit 2125
Requeued flit 2380
Requeued flit 2131
Requeued flit 2305
Requeued flit 2105
Requeued flit 2382
Requeued flit 2360
Requeued flit 2203
Requeued flit 2396
Requeued flit 2234
Requeued flit 2179
Requeued flit 2245
Requeued flit 2144
Requeued flit 2349
Requeued flit 2133
Requeued flit 2334
Requeued flit 2097
Requeued flit 2366
Requeued flit 2287
Requeued flit 2275
Requeued flit 2163
Requeued flit 2324
Requeued flit 2294
Requeued flit 2335
Requeued flit 2441
Requeued flit 2333
Requeued flit 2387
Requeued flit 2243
Requeued flit 2391
Requeued flit 2381
Requeued flit 2408
Requeued flit 2319
Requeued flit 2236
Requeued flit 2474
Requeued flit 2245
Requeued flit 2490
Requeued flit 2404
Requeued flit 2131
Requeued flit 2541
Requeued flit 2448
Requeued flit 2427
Requeued flit 2509
Requeued flit 2314
Requeued flit 2416
Requeued flit 2298
Requeued flit 2275
Requeued flit 2443
Requeued flit 2556
Requeued flit 2634
Requeued flit 2408
Requeued flit 2345
Requeued flit 2588
Requeued flit 2568
Requeued flit 2458
Requeued flit 2575
Requeued flit 2625
Requeued flit 2653
Requeued flit 2654
Requeued flit 2645
Requeued flit 2323
Requeued flit 2431
Requeued flit 2469
Requeued flit 2463
Requeued flit 2705
Requeued flit 2696
Requeued flit 2535
Requeued flit 2611
Requeued flit 2684
Requeued flit 2669
Requeued flit 2566
Requeued flit 2680
Requeued flit 2664
Requeued flit 2749
Requeued flit 2671
Requeued flit 2483
Requeued flit 2742
Requeued flit 2747
Requeued flit 2678
Requeued flit 2656
Requeued flit 2482
Requeued flit 2704
Requeued flit 2633
Requeued flit 2768
Requeued flit 2557
Requeued flit 2706
Requeued flit 2695
Requeued flit 2687
Requeued flit 2822
Requeued flit 2877
Requeued flit 2757
Requeued flit 2807
Requeued flit 2766
Requeued flit 2637
Requeued flit 2489
Requeued flit 2707
Requeued flit 2825
Requeued flit 2615
Requeued flit 2490
Requeued flit 2790
Requeued flit 2889
Requeued flit 2696
Requeued flit 2598
Requeued flit 2838
Requeued flit 2697
Requeued flit 2730
Requeued flit 2856
Requeued flit 2731
Requeued flit 2892
Requeued flit 2728
Requeued flit 2755
Requeued flit 2897
Requeued flit 2780
Requeued flit 2853
Requeued flit 2673
Requeued flit 2858
Requeued flit 2670
Requeued flit 2830
Requeued flit 2814
Requeued flit 3006
Requeued flit 2802
Requeued flit 3018
Requeued flit 2763
Requeued flit 2617
Requeued flit 2950
Requeued flit 2687
Requeued flit 2764
Requeued flit 2785
Requeued flit 2884
Requeued flit 2705
Requeued flit 2598
Requeued flit 2794
Requeued flit 2408
Requeued flit 3001
Requeued flit 2861
Requeued flit 2797
Requeued flit 2943
Requeued flit 3026
Requeued flit 2994
Requeued flit 2988
Requeued flit 2939
Requeued flit 3058
Requeued flit 2965
Requeued flit 2873
Requeued flit 2588
Requeued flit 2944
Requeued flit 2950
Requeued flit 2838
Requeued flit 3019
Requeued flit 2783
Requeued flit 2964
Requeued flit 3107
Requeued flit 2933
Requeued flit 2912
Requeued flit 3021
Requeued flit 2897
Requeued flit 3074
Requeued flit 3046
Requeued flit 3131
Requeued flit 2958
Requeued flit 3060
Requeued flit 2899
Requeued flit 2793
Requeued flit 3063
Requeued flit 3054
Requeued flit 3014
Requeued flit 2835
Requeued flit 3051
Requeued flit 2806
Requeued flit 2987
Requeued flit 2741
Requeued flit 2916
Requeued flit 3164
Requeued flit 3027
Requeued flit 3084
Requeued flit 2849
Requeued flit 3092
Requeued flit 3152
Requeued flit 3079
Requeued flit 3071
Requeued flit 3167
Requeued flit 2892
Requeued flit 3129
Requeued flit 3226
Requeued flit 2822
Requeued flit 3109
Requeued flit 2920
Requeued flit 3115
Requeued flit 2968
Requeued flit 3245
Requeued flit 3169
Requeued flit 3157
Requeued flit 2912
Requeued flit 3275
Requeued flit 3217
Requeued flit 3173
Requeued flit 3320
Requeued flit 3139
Requeued flit 3263
Requeued flit 3163
Requeued flit 2964
Requeued flit 3214
Requeued flit 3098
Requeued flit 3306
Requeued flit 3224
Requeued flit 3133
Requeued flit 3255
Requeued flit 3315
Requeued flit 3274
Requeued flit 3249
Requeued flit 3243
Requeued flit 3185
Requeued flit 3065
Requeued flit 3323
Requeued flit 3132
Requeued flit 3157
Requeued flit 3257
Requeued flit 3312
Requeued flit 3413
Requeued flit 3327
Requeued flit 3420
Requeued flit 3366
Requeued flit 3300
Requeued flit 3308
Requeued flit 3414
Requeued flit 3379
Requeued flit 3486
Requeued flit 3217
Requeued flit 3432
Requeued flit 3316
Requeued flit 3106
Requeued flit 3359
Requeued flit 3410
Requeued flit 3281
Requeued flit 3253
Requeued flit 3547
Requeued flit 3406
Requeued flit 3391
Requeued flit 3445
Requeued flit 3258
Requeued flit 3567
Requeued flit 3541
Requeued flit 3586
Requeued flit 3363
Requeued flit 3109
Requeued flit 3263
Requeued flit 3580
Requeued flit 3275
Requeued flit 3492
Requeued flit 3261
Requeued flit 3531
Requeued flit 3246
Requeued flit 3245
Requeued flit 3581
Requeued flit 3640
Requeued flit 3562
Requeued flit 3525
Requeued flit 3621
Requeued flit 3596
Requeued flit 3691
Requeued flit 3463
Requeued flit 3403
Requeued flit 3707
Requeued flit 3544
Requeued flit 3587
Requeued flit 3668
Requeued flit 3610
Requeued flit 3726
Requeued flit 3442
Requeued flit 3586
Requeued flit 3693
Requeued flit 3593
Requeued flit 3451
Requeued flit 3426
Requeued flit 3556
Requeued flit 3574
Requeued flit 3192
Requeued flit 3464
Requeued flit 3569
Requeued flit 3729
Requeued flit 3495
Requeued flit 3583
Requeued flit 3692
Requeued flit 3642
Requeued flit 3549
Requeued flit 3805
Requeued flit 3634
Requeued flit 3818
Requeued flit 3827
Requeued flit 3540
Requeued flit 3639
Requeued flit 3542
Requeued flit 3461
Requeued flit 3748
Requeued flit 3578
Requeued flit 3730
Requeued flit 3786
Requeued flit 3775
Requeued flit 3808
Requeued flit 3782
Requeued flit 3595
Requeued flit 3701
Requeued flit 3597
Requeued flit 3769
Requeued flit 3510
Requeued flit 3792
Requeued flit 3720
Requeued flit 3651
Requeued flit 3843
Requeued flit 3804
Requeued flit 3760
Requeued flit 3737
Requeued flit 3876
Requeued flit 3602
Requeued flit 3696
Requeued flit 3866
Requeued flit 3791
Requeued flit 3830
Requeued flit 3951
Requeued flit 3805
Requeued flit 3836
Requeued flit 3967
Requeued flit 3781
Requeued flit 3959
Requeued flit 3736
Requeued flit 3863
Requeued flit 3988
Requeued flit 3872
Requeued flit 3948
Requeued flit 4008
Requeued flit 3769
Requeued flit 3768
Requeued flit 3984
Requeued flit 3986
Requeued flit 4090
Requeued flit 3799
Requeued flit 4004
Requeued flit 3931
Requeued flit 3862
Requeued flit 3940
Requeued flit 3976
Requeued flit 3964
Requeued flit 3885
Requeued flit 4154
Requeued flit 4120
Requeued flit 3995
Requeued flit 3784
Requeued flit 4043
Requeued flit 4122
Requeued flit 4047
Requeued flit 4181
Requeued flit 3896
Requeued flit 4027
Requeued flit 3990
Requeued flit 4088
Requeued flit 4050
Requeued flit 4224
Requeued flit 3941
Requeued flit 4111
Requeued flit 3958
Requeued flit 4077
Requeued flit 4231
Requeued flit 4035
Requeued flit 4251
Requeued flit 4104
Requeued flit 4008
Requeued flit 4132
Requeued flit 4216
Requeued flit 3950
Requeued flit 4141
Requeued flit 4189
Requeued flit 4147
Requeued flit 4296
Requeued flit 4266
Requeued flit 3948
Requeued flit 4247
Requeued flit 4209
Requeued flit 4014
Requeued flit 4199
Requeued flit 4205
Requeued flit 4314
Requeued flit 4294
Requeued flit 3999
Requeued flit 3917
Requeued flit 3805
Requeued flit 4307
Requeued flit 4376
Requeued flit 4277
Requeued flit 4135
Requeued flit 4239
Requeued flit 4333
Requeued flit 4379
Requeued flit 4053
Requeued flit 4008
Requeued flit 3995
Requeued flit 4280
Requeued flit 4364
Requeued flit 4226
Requeued flit 4413
Requeued flit 4358
Requeued flit 4409
Requeued flit 4102
Requeued flit 4329
Requeued flit 4295
Requeued flit 4384
Requeued flit 4251
Requeued flit 4068
Requeued flit 4181
Requeued flit 4522
Requeued flit 4339
Requeued flit 4443
Requeued flit 4365
Requeued flit 4553
Requeued flit 4364
Requeued flit 4389
Requeued flit 4488
Requeued flit 3950
Requeued flit 4489
Requeued flit 4474
Requeued flit 4602
Requeued flit 4216
Requeued flit 4582
Requeued flit 4615
Requeued flit 4395
Requeued flit 4609
Requeued flit 4362
Requeued flit 4675
Requeued flit 4427
Requeued flit 4608
Requeued flit 4513
Requeued flit 4494
Requeued flit 4676
Requeued flit 4555
Requeued flit 4566
Requeued flit 4680
Requeued flit 4672
Requeued flit 4627
Requeued flit 4731
Requeued flit 4767
Requeued flit 4644
Requeued flit 4668
Requeued flit 4618
Requeued flit 4427
Requeued flit 4826
Requeued flit 4768
Requeued flit 4747
Requeued flit 4790
Requeued flit 4828
Requeued flit 4551
Requeued flit 4665
Requeued flit 4761
Requeued flit 4713
Requeued flit 4479
Requeued flit 4812
Requeued flit 4413
Requeued flit 4847
Requeued flit 4860
Requeued flit 4724
Requeued flit 4892
Requeued flit 4667
Requeued flit 4849
Requeued flit 4954
Requeued flit 4877
Requeued flit 4683
Requeued flit 4602
Requeued flit 4647
Requeued flit 4880
Requeued flit 4838
Requeued flit 4841
Requeued flit 4979
Requeued flit 4527
Requeued flit 4944
Requeued flit 4895
Requeued flit 4843
Requeued flit 4857
Requeued flit 4660
Requeued flit 4703
Requeued flit 4795
Requeued flit 4705
Requeued flit 4888
Requeued flit 4830
Requeued flit 5088
Requeued flit 4818
Requeued flit 4959
Requeued flit 4952
Requeued flit 5000
Requeued flit 4953
Requeued flit 4960
Requeued flit 4965
Requeued flit 4816
Requeued flit 4848
Requeued flit 5151
Requeued flit 4745
Requeued flit 5055
Requeued flit 4844
Requeued flit 5040
Requeued flit 4993
Requeued flit 4761
Requeued flit 5100
Requeued flit 4683
Requeued flit 5022
Requeued flit 5052
Requeued flit 5125
Requeued flit 4826
Requeued flit 5219
Requeued flit 4691
Requeued flit 5146
Requeued flit 4957
Requeued flit 5075
Requeued flit 5084
Requeued flit 5239
Requeued flit 4883
Requeued flit 5119
Requeued flit 5191
Requeued flit 5195
Requeued flit 5045
Requeued flit 5124
Requeued flit 5118
Requeued flit 5056
Requeued flit 5256
Requeued flit 5157
Requeued flit 5058
Requeued flit 5298
Requeued flit 4917
Requeued flit 5063
Requeued flit 5163
Requeued flit 5171
Requeued flit 5104
Requeued flit 5022
Requeued flit 5329
Requeued flit 5238
Requeued flit 5146
Requeued flit 5279
Requeued flit 5107
Requeued flit 5242
Requeued flit 5317
Requeued flit 5280
Requeued flit 5088
Requeued flit 5278
Requeued flit 5221
Requeued flit 5213
Requeued flit 5287
Requeued flit 5222
Requeued flit 5180
Requeued flit 5257
Requeued flit 5290
Requeued flit 5442
Requeued flit 5455
Requeued flit 5230
Requeued flit 5351
Requeued flit 5339
Requeued flit 5328
Requeued flit 5473
Requeued flit 5445
Requeued flit 5237
Requeued flit 5211
Requeued flit 5170
Requeued flit 5413
Requeued flit 5428
Requeued flit 5395
Requeued flit 5189
Requeued flit 5387
Requeued flit 5040
Requeued flit 5466
Requeued flit 5292
Requeued flit 5405
Requeued flit 5543
Requeued flit 5518
Requeued flit 5222
Requeued flit 5380
Requeued flit 5597
Requeued flit 5490
Requeued flit 5466
Requeued flit 5533
Requeued flit 5289
Requeued flit 5606
Requeued flit 5486
Requeued flit 5598
Requeued flit 5640
Requeued flit 5432
Requeued flit 5438
Requeued flit 5613
Requeued flit 5472
Requeued flit 5626
Requeued flit 5656
Requeued flit 5429
Requeued flit 5532
Requeued flit 5530
Requeued flit 5587
Requeued flit 5726
Requeued flit 5551
Requeued flit 5571
Requeued flit 5673
Requeued flit 5563
Requeued flit 5702
Requeued flit 5633
Requeued flit 5660
Requeued flit 5550
Requeued flit 5783
Requeued flit 5771
Requeued flit 5794
Requeued flit 5569
Requeued flit 5790
Requeued flit 5718
Requeued flit 5675
Requeued flit 5622
Requeued flit 5755
Requeued flit 5568
Requeued flit 5600
Requeued flit 5610
Requeued flit 5709
Requeued flit 5447
Requeued flit 5711
Requeued flit 5623
Requeued flit 5596
Requeued flit 5513
Requeued flit 5811
Requeued flit 5684
Requeued flit 5773
Requeued flit 5853
Requeued flit 5766
Requeued flit 5727
Requeued flit 5743
Requeued flit 5663
Requeued flit 5873
Requeued flit 5829
Requeued flit 5846
Requeued flit 5782
Requeued flit 5675
Requeued flit 5909
Requeued flit 5684
Requeued flit 5928
Requeued flit 5993
Requeued flit 5868
Requeued flit 5898
Requeued flit 5834
Requeued flit 5872
Requeued flit 5599
Requeued flit 5546
Requeued flit 5742
Requeued flit 5935
Requeued flit 5727
Requeued flit 5951
Requeued flit 5596
Requeued flit 5932
Requeued flit 6024
Requeued flit 5860
Requeued flit 5835
Requeued flit 5878
Requeued flit 5888
Requeued flit 5959
Requeued flit 5871
Requeued flit 5778
Requeued flit 5654
Requeued flit 5903
Requeued flit 6003
Requeued flit 6079
Requeued flit 5909
Requeued flit 5861
Requeued flit 5957
Requeued flit 5804
Requeued flit 5976
Requeued flit 5939
Requeued flit 6038
Requeued flit 6007
Requeued flit 5981
Requeued flit 6085
Requeued flit 5954
Requeued flit 6114
Requeued flit 6151
Requeued flit 6051
Requeued flit 6055
Requeued flit 5991
Requeued flit 5946
Requeued flit 6061
Requeued flit 5968
Requeued flit 6072
Requeued flit 6082
Requeued flit 6086
Requeued flit 6130
Requeued flit 6090
Requeued flit 6046
Requeued flit 6234
Requeued flit 6137
Requeued flit 6100
Requeued flit 5927
Requeued flit 6138
Requeued flit 6019
Requeued flit 6268
Requeued flit 5836
Requeued flit 6229
Requeued flit 6125
Requeued flit 6240
Requeued flit 5706
Requeued flit 6273
Requeued flit 6161
Requeued flit 6210
Requeued flit 6019
Requeued flit 6114
Requeued flit 6111
Requeued flit 6192
Requeued flit 6182
Requeued flit 6154
Requeued flit 6340
Requeued flit 6366
Requeued flit 6112
Requeued flit 6404
Requeued flit 6184
Requeued flit 6406
Requeued flit 6349
Requeued flit 6341
Requeued flit 5991
Requeued flit 6206
Requeued flit 6417
Requeued flit 6072
Requeued flit 6193
Requeued flit 6227
Requeued flit 6361
Requeued flit 6442
Requeued flit 6474
Requeued flit 6062
Requeued flit 6482
Requeued flit 6222
Requeued flit 6364
Requeued flit 6309
Requeued flit 6497
Requeued flit 6507
Requeued flit 6153
Requeued flit 6494
Requeued flit 6519
Requeued flit 6407
Requeued flit 6386
Requeued flit 6324
Requeued flit 6509
Requeued flit 6373
Requeued flit 6435
Requeued flit 6311
Requeued flit 6187
Requeued flit 6524
Requeued flit 6575
Requeued flit 6366
Requeued flit 6458
Requeued flit 6520
Requeued flit 6210
Requeued flit 6506
Requeued flit 6353
Requeued flit 6491
Requeued flit 6309
Requeued flit 6440
Requeued flit 6500
Requeued flit 6327
Requeued flit 6196
Requeued flit 6323
Requeued flit 6469
Requeued flit 6120
Requeued flit 6571
Requeued flit 6492
Requeued flit 6448
Requeued flit 6609
Requeued flit 6562
Requeued flit 6635
Requeued flit 6675
Requeued flit 6501
Requeued flit 6507
Requeued flit 6359
Requeued flit 6634
Requeued flit 6687
Requeued flit 6362
Requeued flit 6400
Requeued flit 6151
Requeued flit 6261
Requeued flit 6732
Requeued flit 6443
Requeued flit 6619
Requeued flit 6579
Requeued flit 6679
Requeued flit 6702
Requeued flit 6700
Requeued flit 6646
Requeued flit 6727
Requeued flit 6460
Requeued flit 6669
Requeued flit 6615
Requeued flit 6639
Requeued flit 6673
Requeued flit 6660
Requeued flit 6496
Requeued flit 6218
Requeued flit 6422
Requeued flit 6783
Requeued flit 6760
Requeued flit 6840
Requeued flit 6782
Requeued flit 6887
Requeued flit 6725
Requeued flit 6742
Requeued flit 6908
Requeued flit 6813
Requeued flit 6768
Requeued flit 6931
Requeued flit 6866
Requeued flit 6686
Requeued flit 6562
Requeued flit 6773
Requeued flit 6751
Requeued flit 6726
Requeued flit 6724
Requeued flit 6870
Requeued flit 6547
Requeued flit 6791
Requeued flit 6563
Requeued flit 6736
Requeued flit 6841
Requeued flit 6739
Requeued flit 6703
Requeued flit 6787
Requeued flit 6828
Requeued flit 6879
Requeued flit 6990
Requeued flit 6749
Requeued flit 6891
Requeued flit 7007
Requeued flit 6805
Requeued flit 6943
Requeued flit 7062
Requeued flit 7024
Requeued flit 7001
Requeued flit 6838
Requeued flit 6909
Requeued flit 6639
Requeued flit 7104
Requeued flit 7049
Requeued flit 6961
Requeued flit 7026
Requeued flit 6793
Requeued flit 6957
Requeued flit 7039
Requeued flit 7027
Requeued flit 7006
Requeued flit 7009
Requeued flit 7111
Requeued flit 7041
Requeued flit 6956
Requeued flit 6789
Requeued flit 7071
Requeued flit 6799
Requeued flit 6971
Requeued flit 6800
Requeued flit 7175
Requeued flit 7210
Requeued flit 7087
Requeued flit 6931
Requeued flit 7015
Requeued flit 6870
Requeued flit 7083
Requeued flit 7046
Requeued flit 7196
Requeued flit 7139
Requeued flit 6861
Requeued flit 7146
Requeued flit 7134
Requeued flit 6991
Requeued flit 7109
Requeued flit 7070
Requeued flit 7178
Requeued flit 6989
Requeued flit 6840
Requeued flit 7238
Requeued flit 6983
Requeued flit 7106
Requeued flit 7214
Requeued flit 7197
Requeued flit 7086
Requeued flit 7062
Requeued flit 7260
Requeued flit 7254
Requeued flit 7241
Requeued flit 7130
Requeued flit 7158
Requeued flit 7005
Requeued flit 7006
Requeued flit 7314
Requeued flit 7423
Requeued flit 7406
Requeued flit 7346
Requeued flit 7277
Requeued flit 7434
Requeued flit 7356
Requeued flit 7280
Requeued flit 7181
Requeued flit 7332
Requeued flit 7330
Requeued flit 7433
Requeued flit 7367
Requeued flit 7472
Requeued flit 7239
Requeued flit 7481
Requeued flit 7321
Requeued flit 7226
Requeued flit 7338
Requeued flit 7353
Requeued flit 7422
Requeued flit 7501
Requeued flit 7412
Requeued flit 7258
Requeued flit 7566
Requeued flit 7295
Requeued flit 7554
Requeued flit 7488
Requeued flit 7596
Requeued flit 7322
Requeued flit 7526
Requeued flit 7571
Requeued flit 7283
Requeued flit 7567
Requeued flit 7539
Requeued flit 7601
Requeued flit 7551
Requeued flit 7585
Requeued flit 7658
Requeued flit 7295
Requeued flit 7608
Requeued flit 7498
Requeued flit 7635
Requeued flit 7529
Requeued flit 7709
Requeued flit 7411
Requeued flit 7564
Requeued flit 7605
Requeued flit 7454
Requeued flit 7382
Requeued flit 7735
Requeued flit 7736
Requeued flit 7597
Requeued flit 7592
Requeued flit 7707
Requeued flit 7511
Requeued flit 7683
Requeued flit 7393
Requeued flit 7641
Requeued flit 7711
Requeued flit 7574
Requeued flit 7573
Requeued flit 7418
Requeued flit 7602
Requeued flit 7756
Requeued flit 7663
Requeued flit 7741
Requeued flit 7571
Requeued flit 7616
Requeued flit 7697
Requeued flit 7706
Requeued flit 7563
Requeued flit 7773
Requeued flit 7508
Requeued flit 7680
Requeued flit 7709
Requeued flit 7666
Requeued flit 7777
Requeued flit 7746
Requeued flit 7332
Requeued flit 7704
Requeued flit 7616
Requeued flit 7661
Requeued flit 7718
Requeued flit 7869
Requeued flit 7858
Requeued flit 7499
Requeued flit 7432
Requeued flit 7454
Requeued flit 7651
Requeued flit 7708
Requeued flit 7610
Requeued flit 7636
Requeued flit 7979
Requeued flit 7911
Requeued flit 7563
Requeued flit 7942
Requeued flit 7941
Requeued flit 7882
Requeued flit 7974
Requeued flit 7821
Requeued flit 7892
Requeued flit 7951
Requeued flit 8048
Requeued flit 7752
Requeued flit 7733
Requeued flit 7723
Requeued flit 7829
Requeued flit 8075
Requeued flit 8039
Requeued flit 7940
Requeued flit 8022
Requeued flit 7844
Requeued flit 7890
Requeued flit 7610
Requeued flit 8033
Requeued flit 8061
Requeued flit 7982
Requeued flit 8119
Requeued flit 8011
Requeued flit 8089
Requeued flit 7802
Requeued flit 7968
Requeued flit 8027
Requeued flit 8112
Requeued flit 8026
Requeued flit 8025
Requeued flit 8086
Requeued flit 8131
Requeued flit 7863
Requeued flit 8034
Requeued flit 8133
Requeued flit 8033
Requeued flit 8113
Requeued flit 8137
Requeued flit 8150
Requeued flit 8024
Requeued flit 8005
Requeued flit 8181
Requeued flit 8104
Requeued flit 8096
Requeued flit 7978
Requeued flit 7707
Requeued flit 8259
Requeued flit 7957
Requeued flit 8215
Requeued flit 8125
Requeued flit 7976
Requeued flit 8155
Requeued flit 8044
Requeued flit 8187
Requeued flit 8095
Requeued flit 7756
Requeued flit 8255
Requeued flit 8225
Requeued flit 8283
Requeued flit 8164
Requeued flit 8126
Requeued flit 7905
Requeued flit 7916
Requeued flit 8244
Requeued flit 8256
Requeued flit 8252
Requeued flit 8234
Requeued flit 8078
Requeued flit 8385
Requeued flit 8321
Requeued flit 8344
Requeued flit 8152
Requeued flit 8209
Requeued flit 8201
Requeued flit 8122
Requeued flit 8357
Requeued flit 8399
Requeued flit 8333
Requeued flit 8310
Requeued flit 8384
Requeued flit 8416
Requeued flit 8334
Requeued flit 8258
Requeued flit 8266
Requeued flit 8370
Requeued flit 8387
Requeued flit 8352
Requeued flit 8440
Requeued flit 8229
Requeued flit 8504
Requeued flit 8351
Requeued flit 8333
Requeued flit 8245
Requeued flit 8432
Requeued flit 8353
Requeued flit 8507
Requeued flit 8512
Requeued flit 8398
Requeued flit 8425
Requeued flit 8443
Requeued flit 8499
Requeued flit 8025
Requeued flit 8361
Requeued flit 8372
Requeued flit 8369
Requeued flit 8497
Requeued flit 8320
Requeued flit 8453
Requeued flit 8412
Requeued flit 8328
Requeued flit 8408
Requeued flit 8674
Requeued flit 8472
Requeued flit 8680
Requeued flit 8479
Requeued flit 8692
Requeued flit 8488
Requeued flit 8586
Requeued flit 8457
Requeued flit 8654
Requeued flit 8695
Requeued flit 8377
Requeued flit 8444
Requeued flit 8627
Requeued flit 8523
Requeued flit 8750
Requeued flit 8714
Requeued flit 8513
Requeued flit 8192
Requeued flit 8305
Requeued flit 8681
Requeued flit 8529
Requeued flit 8440
Requeued flit 8442
Requeued flit 8659
Requeued flit 8367
Requeued flit 8671
Requeued flit 8591
Requeued flit 8792
Requeued flit 8464
Requeued flit 8803
Requeued flit 8766
Requeued flit 8609
Requeued flit 8737
Requeued flit 8684
Requeued flit 8266
Requeued flit 8639
Requeued flit 8713
Requeued flit 8718
Requeued flit 8320
Requeued flit 8636
Requeued flit 8848
Requeued flit 8650
Requeued flit 8816
Requeued flit 8864
Requeued flit 8860
Requeued flit 8858
Requeued flit 8889
Requeued flit 8707
Requeued flit 8744
Requeued flit 8770
Requeued flit 8581
Requeued flit 8753
Requeued flit 8741
Requeued flit 8719
Requeued flit 8813
Requeued flit 8786
Requeued flit 8975
Requeued flit 8640
Requeued flit 8916
Requeued flit 8769
Requeued flit 8841
Requeued flit 8513
Requeued flit 8958
Requeued flit 8922
Requeued flit 8902
Requeued flit 8895
Requeued flit 8906
Requeued flit 8963
Requeued flit 8907
Requeued flit 8908
Requeued flit 8820
Requeued flit 9037
Requeued flit 8853
Requeued flit 8955
Requeued flit 9085
Requeued flit 8849
Requeued flit 8986
Requeued flit 9009
Requeued flit 8971
Requeued flit 8884
Requeued flit 9119
Requeued flit 8983
Requeued flit 8914
Requeued flit 9104
Requeued flit 8859
Requeued flit 9022
Requeued flit 8969
Requeued flit 9123
Requeued flit 8960
Requeued flit 9173
Requeued flit 9078
Requeued flit 9024
Requeued flit 9184
Requeued flit 9043
Requeued flit 9015
Requeued flit 9080
Requeued flit 9105
Requeued flit 9202
Requeued flit 9100
Requeued flit 9042
Requeued flit 8996
Requeued flit 9183
Requeued flit 9013
Requeued flit 8905
Requeued flit 9255
Requeued flit 9172
Requeued flit 9108
Requeued flit 8875
Requeued flit 8970
Requeued flit 9075
Requeued flit 8841
Requeued flit 9199
Requeued flit 9240
Requeued flit 9271
Requeued flit 9145
Requeued flit 9066
Requeued flit 9046
Requeued flit 9064
Requeued flit 8948
Requeued flit 9180
Requeued flit 9256
Requeued flit 8916
Requeued flit 9333
Requeued flit 9315
Requeued flit 9205
Requeued flit 8945
Requeued flit 9229
Requeued flit 9165
Requeued flit 9074
Requeued flit 9189
Requeued flit 9100
Requeued flit 9079
Requeued flit 9397
Requeued flit 9171
Requeued flit 9331
Requeued flit 9207
Requeued flit 9301
Requeued flit 9306
Requeued flit 9175
Requeued flit 9261
Requeued flit 9183
Requeued flit 9313
Requeued flit 9202
Requeued flit 9368
Requeued flit 9335
Requeued flit 9421
Requeued flit 9342
Requeued flit 9410
Requeued flit 9224
Requeued flit 9296
Requeued flit 9271
Requeued flit 9376
Requeued flit 9437
Requeued flit 9234
Requeued flit 9237
Requeued flit 9371
Requeued flit 9279
Requeued flit 9320
Requeued flit 9456
Requeued flit 9486
Requeued flit 9108
Requeued flit 8916
Requeued flit 9426
Requeued flit 9551
Requeued flit 9570
Requeued flit 9448
Requeued flit 9485
Requeued flit 9330
Requeued flit 9075
Requeued flit 9358
Requeued flit 9374
Requeued flit 9518
Requeued flit 9399
Requeued flit 9499
Requeued flit 9404
Requeued flit 9234
Requeued flit 9519
Requeued flit 9668
Requeued flit 9590
Requeued flit 9655
Requeued flit 9584
Requeued flit 9467
Requeued flit 9506
Requeued flit 9705
Requeued flit 9604
Requeued flit 9641
Requeued flit 9619
Requeued flit 9735
Requeued flit 9511
Requeued flit 9515
Requeued flit 9507
Requeued flit 9283
Requeued flit 9683
Requeued flit 9585
Requeued flit 9558
Requeued flit 9658
Requeued flit 9523
Requeued flit 9653
Requeued flit 9534
Requeued flit 9746
Requeued flit 9633
Requeued flit 9509
Requeued flit 9583
Requeued flit 9555
Requeued flit 9279
Requeued flit 9536
Requeued flit 9814
Requeued flit 9638
Requeued flit 9383
Requeued flit 9427
Requeued flit 9745
Requeued flit 9632
Requeued flit 9648
Requeued flit 9707
Requeued flit 9790
Requeued flit 9805
Requeued flit 9774
Requeued flit 9649
Requeued flit 9576
Requeued flit 9679
Requeued flit 9710
Requeued flit 9764
Requeued flit 9544
Requeued flit 9787
Requeued flit 9752
Requeued flit 9834
Requeued flit 9812
Requeued flit 9769
Requeued flit 9748
Requeued flit 9830
Requeued flit 9661
Requeued flit 9725
Requeued flit 9619
Requeued flit 9754
Requeued flit 9937
Requeued flit 9672
Requeued flit 9688
Requeued flit 9974
Requeued flit 9851
Requeued flit 9899
Requeued flit 9765
Requeued flit 9598
Requeued flit 10008
Requeued flit 9888
Requeued flit 9848
Requeued flit 9716
Requeued flit 9910
Requeued flit 9840
Requeued flit 9933
Requeued flit 9934
Requeued flit 9865
Requeued flit 9704
Requeued flit 9761
Requeued flit 9772
Requeued flit 9852
Requeued flit 10020
Requeued flit 9799
Requeued flit 10060
Requeued flit 9890
Requeued flit 9938
Requeued flit 9807
Requeued flit 9924
Requeued flit 9993
Requeued flit 10053
Requeued flit 10013
Requeued flit 9940
Requeued flit 9947
Requeued flit 10085
Requeued flit 9672
Requeued flit 10092
Requeued flit 9941
Requeued flit 10033
Requeued flit 10006
Requeued flit 10131
Requeued flit 9966
Requeued flit 9830
Requeued flit 9871
Requeued flit 10113
Requeued flit 10071
Requeued flit 9974
Requeued flit 9939
Requeued flit 9742
Requeued flit 10095
Requeued flit 10104
Requeued flit 10005
Requeued flit 9865
Requeued flit 9704
Requeued flit 10146
Requeued flit 10032
Requeued flit 10226
Requeued flit 10194
Requeued flit 10090
Requeued flit 10034
Requeued flit 10217
Requeued flit 10152
Requeued flit 10082
Requeued flit 10177
Requeued flit 10219
Requeued flit 10109
Requeued flit 10156
Requeued flit 10132
Requeued flit 10250
Requeued flit 10010
Requeued flit 10191
Requeued flit 10210
Requeued flit 10242
Requeued flit 10315
Requeued flit 10325
Requeued flit 10275
Requeued flit 10202
Requeued flit 10227
Requeued flit 10287
Requeued flit 10116
Requeued flit 10333
Requeued flit 10061
Requeued flit 10231
Requeued flit 9966
Requeued flit 10334
Requeued flit 10284
Requeued flit 10182
Requeued flit 10270
Requeued flit 10138
Requeued flit 10340
Requeued flit 10235
Requeued flit 10432
Requeued flit 10323
Requeued flit 10390
Requeued flit 10159
Requeued flit 10310
Requeued flit 10389
Requeued flit 10307
Requeued flit 10383
Requeued flit 10357
Requeued flit 10189
Requeued flit 10251
Requeued flit 10397
Requeued flit 10061
Requeued flit 10033
Requeued flit 10241
Requeued flit 10493
Requeued flit 10500
Requeued flit 10291
Requeued flit 10314
Requeued flit 10159
Requeued flit 10495
Requeued flit 10267
Requeued flit 10229
Requeued flit 10392
Requeued flit 10297
Requeued flit 10607
Requeued flit 10556
Requeued flit 10416
Requeued flit 10555
Requeued flit 10475
Requeued flit 10499
Requeued flit 10601
Requeued flit 10508
Requeued flit 10242
Requeued flit 10446
Requeued flit 10634
Requeued flit 10478
Requeued flit 10464
Requeued flit 10575
Requeued flit 10574
Requeued flit 10440
Requeued flit 10566
Requeued flit 10489
Requeued flit 10274
Requeued flit 10479
Requeued flit 10506
Requeued flit 10387
Requeued flit 10317
Requeued flit 10528
Requeued flit 10678
Requeued flit 10426
Requeued flit 10354
Requeued flit 10641
Requeued flit 10650
Requeued flit 10583
Requeued flit 10365
Requeued flit 10628
Requeued flit 10493
Requeued flit 10686
Requeued flit 10553
Requeued flit 10559
Requeued flit 10617
Requeued flit 10721
Requeued flit 10750
Requeued flit 10639
Requeued flit 10576
Requeued flit 10666
Requeued flit 10622
Requeued flit 10656
Requeued flit 10728
Requeued flit 10716
Requeued flit 10717
Requeued flit 10541
Requeued flit 10535
Requeued flit 10852
Requeued flit 10709
Requeued flit 10708
Requeued flit 10488
Requeued flit 10635
Requeued flit 10881
Requeued flit 10783
Requeued flit 10621
Requeued flit 10936
Requeued flit 10815
Requeued flit 10440
Requeued flit 10854
Requeued flit 10924
Requeued flit 10944
Requeued flit 10949
Requeued flit 10344
Requeued flit 10942
Requeued flit 10848
Requeued flit 10792
Requeued flit 10566
Requeued flit 10822
Requeued flit 10732
Requeued flit 10594
Requeued flit 10809
Requeued flit 10666
Requeued flit 10955
Requeued flit 11012
Requeued flit 10974
Requeued flit 11023
Requeued flit 10970
Requeued flit 11034
Requeued flit 11043
Requeued flit 10971
Requeued flit 10913
Requeued flit 10997
Requeued flit 10982
Requeued flit 11029
Requeued flit 11098
Requeued flit 10842
Requeued flit 10726
Requeued flit 10870
Requeued flit 11044
Requeued flit 11124
Requeued flit 10894
Requeued flit 11049
Requeued flit 10555
Requeued flit 10553
Requeued flit 10996
Requeued flit 11137
Requeued flit 11063
Requeued flit 11149
Requeued flit 11138
Requeued flit 11111
Requeued flit 11148
Requeued flit 10993
Requeued flit 11183
Requeued flit 10924
Requeued flit 11118
Requeued flit 11016
Requeued flit 11173
Requeued flit 10947
Requeued flit 10940
Requeued flit 10997
Requeued flit 10990
Requeued flit 11244
Requeued flit 11028
Requeued flit 10956
Requeued flit 11141
Requeued flit 11204
Requeued flit 11039
Requeued flit 11043
Requeued flit 11211
Requeued flit 11026
Requeued flit 11258
Requeued flit 11189
Requeued flit 10994
Requeued flit 11207
Requeued flit 11103
Requeued flit 10988
Requeued flit 11165
Requeued flit 11277
Requeued flit 11237
Requeued flit 11160
Requeued flit 11041
Requeued flit 11302
Requeued flit 11196
Requeued flit 11219
Requeued flit 11164
Requeued flit 10947
Requeued flit 11215
Requeued flit 11319
Requeued flit 11082
Requeued flit 11152
Requeued flit 11099
Requeued flit 11252
Requeued flit 11114
Requeued flit 11045
Requeued flit 10897
Requeued flit 11394
Requeued flit 11169
Requeued flit 11208
Requeued flit 11285
Requeued flit 10995
Requeued flit 11086
Requeued flit 11337
Requeued flit 11352
Requeued flit 11359
Requeued flit 11224
Requeued flit 11425
Requeued flit 11078
Requeued flit 11199
Requeued flit 11449
Requeued flit 11321
Requeued flit 11217
Requeued flit 11338
Requeued flit 11454
Requeued flit 11468
Requeued flit 11407
Requeued flit 11135
Requeued flit 11229
Requeued flit 11097
Requeued flit 11331
Requeued flit 11358
Requeued flit 11442
Requeued flit 11377
Requeued flit 11311
Requeued flit 11039
Requeued flit 11481
Requeued flit 11269
Requeued flit 11482
Requeued flit 11413
Requeued flit 11397
Requeued flit 11258
Requeued flit 11438
Requeued flit 11416
Requeued flit 11212
Requeued flit 11253
Requeued flit 11574
Requeued flit 11414
Requeued flit 11395
Requeued flit 11461
Requeued flit 11401
Requeued flit 11612
Requeued flit 11576
Requeued flit 11500
Requeued flit 11372
Requeued flit 11219
Requeued flit 11505
Requeued flit 11493
Requeued flit 11577
Requeued flit 11562
Requeued flit 11566
Requeued flit 11443
Requeued flit 11556
Requeued flit 11532
Requeued flit 11693
Requeued flit 11312
Requeued flit 11623
Requeued flit 11521
Requeued flit 11402
Requeued flit 11513
Requeued flit 11578
Requeued flit 11616
Requeued flit 11543
Requeued flit 11630
Requeued flit 11562
Requeued flit 11456
Requeued flit 11510
Requeued flit 11611
Requeued flit 11691
Requeued flit 11468
Requeued flit 11746
Requeued flit 11709
Requeued flit 11801
Requeued flit 11603
Requeued flit 11640
Requeued flit 11631
Requeued flit 11673
Requeued flit 11641
Requeued flit 11508
Requeued flit 11742
Requeued flit 11686
Requeued flit 11541
Requeued flit 11660
Requeued flit 11560
Requeued flit 11827
Requeued flit 11797
Requeued flit 11442
Requeued flit 11721
Requeued flit 11851
Requeued flit 11761
Requeued flit 11807
Requeued flit 11894
Requeued flit 11752
Requeued flit 11741
Requeued flit 11817
Requeued flit 11806
Requeued flit 11775
Requeued flit 11482
Requeued flit 11588
Requeued flit 11901
Requeued flit 11814
Requeued flit 11757
Requeued flit 11722
Requeued flit 11716
Requeued flit 11886
Requeued flit 11485
Requeued flit 11975
Requeued flit 11938
Requeued flit 11442
Requeued flit 11981
Requeued flit 11931
Requeued flit 11698
Requeued flit 11953
Requeued flit 11944
Requeued flit 11983
Requeued flit 11963
Requeued flit 11930
Requeued flit 11860
Requeued flit 11884
Requeued flit 11928
Requeued flit 11982
Requeued flit 11803
Requeued flit 12035
Requeued flit 11862
Requeued flit 11827
Requeued flit 11757
Requeued flit 11962
Requeued flit 11980
Requeued flit 12044
Requeued flit 11973
Requeued flit 12077
Requeued flit 11888
Requeued flit 12017
Requeued flit 11948
Requeued flit 12145
Requeued flit 12026
Requeued flit 11900
Requeued flit 12076
Requeued flit 12143
Requeued flit 11943
Requeued flit 11932
Requeued flit 11801
Requeued flit 12121
Requeued flit 12108
Requeued flit 11862
Requeued flit 11971
Requeued flit 11964
Requeued flit 12144
Requeued flit 11938
Requeued flit 12028
Requeued flit 12261
Requeued flit 12172
Requeued flit 11937
Requeued flit 11991
Requeued flit 12064
Requeued flit 12249
Requeued flit 12230
Requeued flit 11899
Requeued flit 11995
Requeued flit 12212
Requeued flit 12054
Requeued flit 11914
Requeued flit 11931
Requeued flit 11813
Requeued flit 12091
Requeued flit 12102
Requeued flit 12147
Requeued flit 11944
Requeued flit 12210
Requeued flit 12301
Requeued flit 12328
Requeued flit 12274
Requeued flit 12201
Requeued flit 12187
Requeued flit 12171
Requeued flit 12394
Requeued flit 12323
Requeued flit 12332
Requeued flit 12400
Requeued flit 12402
Requeued flit 12331
Requeued flit 12395
Requeued flit 12428
Requeued flit 12280
Requeued flit 12461
Requeued flit 12471
Requeued flit 12296
Requeued flit 12145
Requeued flit 12328
Requeued flit 12389
Requeued flit 12427
Requeued flit 12421
Requeued flit 12501
Requeued flit 12377
Requeued flit 12485
Requeued flit 12457
Requeued flit 12515
Requeued flit 12527
Requeued flit 12302
Requeued flit 12352
Requeued flit 12620
Requeued flit 12631
Requeued flit 12260
Requeued flit 12635
Requeued flit 12294
Requeued flit 12554
Requeued flit 12566
Requeued flit 12674
Requeued flit 12532
Requeued flit 12425
Requeued flit 12571
Requeued flit 12675
Requeued flit 12491
Requeued flit 12303
Requeued flit 12608
Requeued flit 12616
Requeued flit 12603
Requeued flit 12694
Requeued flit 12578
Requeued flit 12570
Requeued flit 12623
Requeued flit 12489
Requeued flit 12677
Requeued flit 12765
Requeued flit 12421
Requeued flit 12797
Requeued flit 12660
Requeued flit 12534
Requeued flit 12805
Requeued flit 12666
Requeued flit 12434
Requeued flit 12741
Requeued flit 12624
Requeued flit 12731
Requeued flit 12670
Requeued flit 12606
Requeued flit 12590
Requeued flit 12651
Requeued flit 12744
Requeued flit 12686
Requeued flit 12891
Requeued flit 12715
Requeued flit 12491
Requeued flit 12866
Requeued flit 12722
Requeued flit 12746
Requeued flit 12716
Requeued flit 12680
Requeued flit 12719
Requeued flit 12884
Requeued flit 12880
Requeued flit 12843
Requeued flit 12710
Requeued flit 12834
Requeued flit 12877
Requeued flit 12920
Requeued flit 12641
Requeued flit 12735
Requeued flit 12620
Requeued flit 12886
Requeued flit 12799
Requeued flit 12614
Requeued flit 12721
Requeued flit 12910
Requeued flit 12472
Requeued flit 12797
Requeued flit 12731
Requeued flit 12867
Requeued flit 12865
Requeued flit 12883
Requeued flit 12958
Requeued flit 12666
Requeued flit 12622
Requeued flit 12984
Requeued flit 12711
Requeued flit 12727
Requeued flit 12933
Requeued flit 12831
Requeued flit 12858
Requeued flit 12939
Requeued flit 13093
Requeued flit 13009
Requeued flit 12894
Requeued flit 12663
Requeued flit 12909
Requeued flit 13104
Requeued flit 13107
Requeued flit 13040
Requeued flit 13074
Requeued flit 12896
Requeued flit 13113
Requeued flit 13039
Requeued flit 13058
Requeued flit 13034
Requeued flit 13038
Requeued flit 12869
Requeued flit 12867
Requeued flit 13008
Requeued flit 12687
Requeued flit 13134
Requeued flit 12952
Requeued flit 13013
Requeued flit 12969
Requeued flit 12911
Requeued flit 13167
Requeued flit 13050
Requeued flit 13109
Requeued flit 13197
Requeued flit 13123
Requeued flit 13208
Requeued flit 12930
Requeued flit 13060
Requeued flit 12806
Requeued flit 13106
Requeued flit 12928
Requeued flit 13256
Requeued flit 13053
Requeued flit 13179
Requeued flit 13080
Requeued flit 12830
Requeued flit 13103
Requeued flit 13299
Requeued flit 12993
Requeued flit 13087
Requeued flit 13039
Requeued flit 13212
Requeued flit 13258
Requeued flit 13290
Requeued flit 12897
Requeued flit 12947
Requeued flit 13267
Requeued flit 13173
Requeued flit 13058
Requeued flit 13146
Requeued flit 13348
Requeued flit 13234
Requeued flit 13272
Requeued flit 13259
Requeued flit 13178
Requeued flit 13324
Requeued flit 12711
Requeued flit 13085
Requeued flit 13177
Requeued flit 13181
Requeued flit 12810
Requeued flit 13198
Requeued flit 13129
Requeued flit 13460
Requeued flit 13179
Requeued flit 13366
Requeued flit 13367
Requeued flit 13397
Requeued flit 13060
Requeued flit 13451
Requeued flit 13427
Requeued flit 13252
Requeued flit 13421
Requeued flit 13297
Requeued flit 13400
Requeued flit 13357
Requeued flit 13293
Requeued flit 13370
Requeued flit 13535
Requeued flit 13230
Requeued flit 13488
Requeued flit 13401
Requeued flit 13518
Requeued flit 13395
Requeued flit 13517
Requeued flit 13415
Requeued flit 13353
Requeued flit 13336
Requeued flit 13172
Requeued flit 13502
Requeued flit 13580
Requeued flit 13603
Requeued flit 13416
Requeued flit 13197
Requeued flit 13259
Requeued flit 13544
Requeued flit 13627
Requeued flit 13608
Requeued flit 13368
Requeued flit 13567
Requeued flit 13389
Requeued flit 13448
Requeued flit 13631
Requeued flit 13411
Requeued flit 13576
Requeued flit 13626
Requeued flit 13532
Requeued flit 13527
Requeued flit 13509
Requeued flit 12810
Requeued flit 13427
Requeued flit 13703
Requeued flit 13652
Requeued flit 13566
Requeued flit 13704
Requeued flit 13465
Requeued flit 13677
Requeued flit 13528
Requeued flit 13605
Requeued flit 13575
Requeued flit 13675
Requeued flit 13618
Requeued flit 13405
Requeued flit 13693
Requeued flit 13642
Requeued flit 13495
Requeued flit 13732
Requeued flit 13610
Requeued flit 13604
Requeued flit 13501
Requeued flit 13822
Requeued flit 13419
Requeued flit 13653
Requeued flit 13775
Requeued flit 13673
Requeued flit 13563
Requeued flit 13535
Requeued flit 13829
Requeued flit 13576
Requeued flit 13689
Requeued flit 13612
Requeued flit 13825
Requeued flit 13415
Requeued flit 13793
Requeued flit 13878
Requeued flit 13734
Requeued flit 13874
Requeued flit 13740
Requeued flit 13910
Requeued flit 13465
Requeued flit 13872
Requeued flit 13714
Requeued flit 13797
Requeued flit 13723
Requeued flit 13820
Requeued flit 13930
Requeued flit 13957
Requeued flit 13838
Requeued flit 13818
Requeued flit 13926
Requeued flit 13898
Requeued flit 13846
Requeued flit 13856
Requeued flit 14026
Requeued flit 13746
Requeued flit 13630
Requeued flit 13757
Requeued flit 13998
Requeued flit 13868
Requeued flit 13904
Requeued flit 14098
Requeued flit 14064
Requeued flit 14060
Requeued flit 13761
Requeued flit 13847
Requeued flit 14062
Requeued flit 14057
Requeued flit 14145
Requeued flit 14101
Requeued flit 13789
Requeued flit 13980
Requeued flit 13928
Requeued flit 13951
Requeued flit 13971
Requeued flit 13815
Requeued flit 14121
Requeued flit 13929
Requeued flit 13812
Requeued flit 13793
Requeued flit 14176
Requeued flit 13775
Requeued flit 14149
Requeued flit 13940
Requeued flit 13630
Requeued flit 14068
Requeued flit 14131
Requeued flit 14157
Requeued flit 14150
Requeued flit 14058
Requeued flit 14013
Requeued flit 14163
Requeued flit 14262
Requeued flit 14130
Requeued flit 14037
Requeued flit 14001
Requeued flit 14005
Requeued flit 14004
Requeued flit 14169
Requeued flit 14193
Requeued flit 14315
Requeued flit 14320
Requeued flit 14171
Requeued flit 14066
Requeued flit 14150
Requeued flit 14299
Requeued flit 14356
Requeued flit 14284
Requeued flit 13929
Requeued flit 14147
Requeued flit 14079
Requeued flit 14304
Requeued flit 14290
Requeued flit 14118
Requeued flit 14266
Requeued flit 14161
Requeued flit 14354
Requeued flit 14121
Requeued flit 14226
Requeued flit 14425
Requeued flit 14283
Requeued flit 14148
Requeued flit 14353
Requeued flit 14442
Requeued flit 14176
Requeued flit 14444
Requeued flit 14326
Requeued flit 14451
Requeued flit 14307
Requeued flit 14439
Requeued flit 14301
Requeued flit 14254
Requeued flit 14253
Requeued flit 14438
Requeued flit 14516
Requeued flit 14318
Requeued flit 14541
Requeued flit 14351
Requeued flit 14299
Requeued flit 14582
Requeued flit 14374
Requeued flit 14364
Requeued flit 14588
Requeued flit 14309
Requeued flit 14480
Requeued flit 14574
Requeued flit 14531
Requeued flit 14148
Requeued flit 14394
Requeued flit 14512
Requeued flit 14413
Requeued flit 14308
Requeued flit 14693
Requeued flit 14672
Requeued flit 14398
Requeued flit 14632
Requeued flit 14634
Requeued flit 14499
Requeued flit 14660
Requeued flit 14468
Requeued flit 14682
Requeued flit 14171
Requeued flit 14400
Requeued flit 14590
Requeued flit 14566
Requeued flit 14571
Requeued flit 14619
Requeued flit 14397
Requeued flit 14540
Requeued flit 14765
Requeued flit 14709
Requeued flit 14631
Requeued flit 14520
Requeued flit 14150
Requeued flit 14411
Requeued flit 14413
Requeued flit 14754
Requeued flit 14634
Requeued flit 14387
Requeued flit 14785
Requeued flit 14680
Requeued flit 14510
Requeued flit 14707
Requeued flit 14595
Requeued flit 13926
Requeued flit 14650
Requeued flit 14429
Requeued flit 14620
Requeued flit 14744
Requeued flit 14617
Requeued flit 14507
Requeued flit 14755
Requeued flit 14297
Requeued flit 14797
Requeued flit 14746
Requeued flit 14805
Requeued flit 14689
Requeued flit 14711
Requeued flit 14720
Requeued flit 14861
Requeued flit 14603
Requeued flit 14823
Requeued flit 14622
Requeued flit 14810
Requeued flit 14934
Requeued flit 14635
Requeued flit 14731
Requeued flit 14904
Requeued flit 14794
Requeued flit 14838
Requeued flit 14784
Requeued flit 15033
Requeued flit 14851
Requeued flit 15043
Requeued flit 14751
Requeued flit 14915
Requeued flit 14820
Requeued flit 14932
Requeued flit 15064
Requeued flit 15026
Requeued flit 14973
Requeued flit 14943
Requeued flit 14984
Requeued flit 14976
Requeued flit 14975
Requeued flit 14946
Requeued flit 15071
Requeued flit 14952
Requeued flit 14994
Requeued flit 15122
Requeued flit 15042
Requeued flit 15155
Requeued flit 15056
Requeued flit 14910
Requeued flit 15045
Requeued flit 15137
Requeued flit 15028
Requeued flit 15099
Requeued flit 14969
Requeued flit 14996
Requeued flit 15195
Requeued flit 15090
Requeued flit 15058
Requeued flit 14830
Requeued flit 15029
Requeued flit 15032
Requeued flit 15021
Requeued flit 15085
Requeued flit 15144
Requeued flit 15068
Requeued flit 14947
Requeued flit 15244
Requeued flit 15250
Requeued flit 15180
Requeued flit 15105
Requeued flit 15142
Requeued flit 15181
Requeued flit 15196
Requeued flit 15087
Requeued flit 15135
Requeued flit 14908
Requeued flit 15133
Requeued flit 15251
Requeued flit 14751
Requeued flit 15188
Requeued flit 15303
Requeued flit 15207
Requeued flit 15191
Requeued flit 15362
Requeued flit 15264
Requeued flit 15231
Requeued flit 15099
Requeued flit 15234
Requeued flit 15044
Requeued flit 14830
Requeued flit 14943
Requeued flit 15242
Requeued flit 15158
Requeued flit 15198
Requeued flit 15391
Requeued flit 15241
Requeued flit 15105
Requeued flit 15216
Requeued flit 15289
Requeued flit 15276
Requeued flit 15325
Requeued flit 15252
Requeued flit 15306
Requeued flit 15402
Requeued flit 15258
Requeued flit 15247
Requeued flit 15407
Requeued flit 15370
Requeued flit 15284
Requeued flit 15317
Requeued flit 15195
Requeued flit 15365
Requeued flit 15430
Requeued flit 15329
Requeued flit 15192
Requeued flit 15422
Requeued flit 15169
Requeued flit 15303
Requeued flit 15182
Requeued flit 15512
Requeued flit 15313
Requeued flit 15356
Requeued flit 15280
Requeued flit 15310
Requeued flit 15489
Requeued flit 15581
Requeued flit 15425
Requeued flit 15469
Requeued flit 15476
Requeued flit 15528
Requeued flit 15322
Requeued flit 15260
Requeued flit 15511
Requeued flit 15393
Requeued flit 15589
Requeued flit 15420
Requeued flit 15624
Requeued flit 15533
Requeued flit 15517
Requeued flit 15565
Requeued flit 15550
Requeued flit 15649
Requeued flit 15436
Requeued flit 15442
Requeued flit 15669
Requeued flit 15640
Requeued flit 15732
Requeued flit 15384
Requeued flit 15605
Requeued flit 15418
Requeued flit 15560
Requeued flit 15653
Requeued flit 15526
Requeued flit 15532
Requeued flit 15654
Requeued flit 15639
Requeued flit 15731
Requeued flit 15638
Requeued flit 15708
Requeued flit 15679
Requeued flit 15503
Requeued flit 15528
Requeued flit 15682
Requeued flit 15741
Requeued flit 15527
Requeued flit 15564
Requeued flit 15577
Requeued flit 15690
Requeued flit 15627
Requeued flit 15764
Requeued flit 15718
Requeued flit 15651
Requeued flit 15788
Requeued flit 15676
Requeued flit 15608
Requeued flit 15603
Requeued flit 15765
Requeued flit 15706
Requeued flit 15670
Requeued flit 15861
Requeued flit 15809
Requeued flit 15878
Requeued flit 15771
Requeued flit 15884
Requeued flit 15789
Requeued flit 15589
Requeued flit 15881
Requeued flit 15625
Requeued flit 15650
Requeued flit 15877
Requeued flit 15715
Requeued flit 15897
Requeued flit 15779
Requeued flit 15637
Requeued flit 15659
Requeued flit 15859
Requeued flit 15854
Requeued flit 15872
Requeued flit 15889
Requeued flit 15710
Requeued flit 15938
Requeued flit 15887
Requeued flit 15816
Requeued flit 15792
Requeued flit 15976
Requeued flit 15886
Requeued flit 15690
Requeued flit 15897
Requeued flit 15827
Requeued flit 16015
Requeued flit 15853
Requeued flit 15983
Requeued flit 15704
Requeued flit 15964
Requeued flit 15946
Requeued flit 15657
Requeued flit 15950
Requeued flit 16025
Requeued flit 15725
Requeued flit 15994
Requeued flit 15603
Requeued flit 15804
Requeued flit 15935
Requeued flit 15952
Requeued flit 15906
Requeued flit 15938
Requeued flit 15680
Requeued flit 15858
Requeued flit 15963
Requeued flit 15842
Requeued flit 16045
Requeued flit 15765
Requeued flit 15943
Requeued flit 15756
Requeued flit 16109
Requeued flit 16156
Requeued flit 15915
Requeued flit 16113
Requeued flit 16103
Requeued flit 15966
Requeued flit 15999
Requeued flit 16167
Requeued flit 16026
Requeued flit 16081
Requeued flit 16134
Requeued flit 16169
Requeued flit 16120
Requeued flit 16161
Requeued flit 16193
Requeued flit 16181
Requeued flit 16086
Requeued flit 15830
Requeued flit 16007
Requeued flit 15993
Requeued flit 16205
Requeued flit 16042
Requeued flit 16185
Requeued flit 15954
Requeued flit 15650
Requeued flit 16250
Requeued flit 16097
Requeued flit 16032
Requeued flit 16170
Requeued flit 16044
Requeued flit 16131
Requeued flit 16202
Requeued flit 16303
Requeued flit 16138
Requeued flit 16279
Requeued flit 16184
Requeued flit 16040
Requeued flit 16188
Requeued flit 16259
Requeued flit 16313
Requeued flit 16187
Requeued flit 16161
Requeued flit 16178
Requeued flit 16355
Requeued flit 16331
Requeued flit 16246
Requeued flit 16052
Requeued flit 16232
Requeued flit 15969
Requeued flit 16120
Requeued flit 16266
Requeued flit 16109
Requeued flit 16339
Requeued flit 16418
Requeued flit 16153
Requeued flit 16323
Requeued flit 16396
Requeued flit 16277
Requeued flit 16192
Requeued flit 16407
Requeued flit 16347
Requeued flit 16467
Requeued flit 16301
Requeued flit 16465
Requeued flit 16055
Requeued flit 16485
Requeued flit 16475
Requeued flit 15903
Requeued flit 16384
Requeued flit 16400
Requeued flit 16416
Requeued flit 16505
Requeued flit 16327
Requeued flit 16315
Requeued flit 16390
Requeued flit 16543
Requeued flit 16433
Requeued flit 16496
Requeued flit 16446
Requeued flit 16402
Requeued flit 16367
Requeued flit 16426
Requeued flit 16520
Requeued flit 16326
Requeued flit 16488
Requeued flit 16600
Requeued flit 16567
Requeued flit 16591
Requeued flit 16435
Requeued flit 16629
Requeued flit 16537
Requeued flit 16422
Requeued flit 16673
Requeued flit 16621
Requeued flit 16636
Requeued flit 16485
Requeued flit 16649
Requeued flit 16507
Requeued flit 16541
Requeued flit 16385
Requeued flit 16681
Requeued flit 16713
Requeued flit 16624
Requeued flit 16643
Requeued flit 16501
Requeued flit 16586
Requeued flit 16725
Requeued flit 16762
Requeued flit 16556
Requeued flit 16543
Requeued flit 16455
Requeued flit 16545
Requeued flit 16587
Requeued flit 16496
Requeued flit 16633
Requeued flit 16688
Requeued flit 16667
Requeued flit 16634
Requeued flit 16652
Requeued flit 16385
Requeued flit 16832
Requeued flit 16402
Requeued flit 16809
Requeued flit 16786
Requeued flit 16748
Requeued flit 16525
Requeued flit 16714
Requeued flit 16483
Requeued flit 16426
Requeued flit 16661
Requeued flit 16638
Requeued flit 16754
Requeued flit 16594
Requeued flit 16880
Requeued flit 16883
Requeued flit 16577
Requeued flit 16784
Requeued flit 16708
Requeued flit 16718
Requeued flit 16441
Requeued flit 16862
Requeued flit 16821
Requeued flit 16854
Requeued flit 16932
Requeued flit 16719
Requeued flit 16657
Requeued flit 16947
Requeued flit 16941
Requeued flit 16712
Requeued flit 16956
Requeued flit 16868
Requeued flit 16924
Requeued flit 16950
Requeued flit 16795
Requeued flit 16974
Requeued flit 16822
Requeued flit 16396
Requeued flit 16881
Requeued flit 16999
Requeued flit 16759
Requeued flit 17026
Requeued flit 16652
Requeued flit 16784
Requeued flit 16841
Requeued flit 17007
Requeued flit 16877
Requeued flit 16848
Requeued flit 16790
Requeued flit 16912
Requeued flit 17042
Requeued flit 16865
Requeued flit 16402
Requeued flit 16762
Requeued flit 16501
Requeued flit 16992
Requeued flit 16883
Requeued flit 16798
Requeued flit 17082
Requeued flit 16839
Requeued flit 17035
Requeued flit 16880
Requeued flit 17043
Requeued flit 17051
Requeued flit 16817
Requeued flit 17073
Requeued flit 16936
Requeued flit 16902
Requeued flit 17031
Requeued flit 16967
Requeued flit 17136
Requeued flit 16940
Requeued flit 16910
Requeued flit 17106
Requeued flit 16981
Requeued flit 17102
Requeued flit 17196
Requeued flit 17019
Requeued flit 17129
Requeued flit 17167
Requeued flit 16988
Requeued flit 17108
Requeued flit 16958
Requeued flit 17143
Requeued flit 17272
Requeued flit 17171
Requeued flit 17076
Requeued flit 17024
Requeued flit 17072
Requeued flit 17198
Requeued flit 17183
Requeued flit 17263
Requeued flit 17025
Requeued flit 17226
Requeued flit 17275
Requeued flit 17045
Requeued flit 16747
Requeued flit 17030
Requeued flit 17269
Requeued flit 17307
Requeued flit 17113
Requeued flit 17115
Requeued flit 17037
Requeued flit 17221
Requeued flit 17329
Requeued flit 17284
Requeued flit 17082
Requeued flit 17102
Requeued flit 17153
Requeued flit 17344
Requeued flit 17334
Requeued flit 17371
Requeued flit 17336
Requeued flit 17373
Requeued flit 17031
Requeued flit 17437
Requeued flit 17302
Requeued flit 16924
Requeued flit 17325
Requeued flit 17275
Requeued flit 17337
Requeued flit 17357
Requeued flit 17258
Requeued flit 17379
Requeued flit 17169
Requeued flit 17253
Requeued flit 17326
Requeued flit 17191
Requeued flit 17431
Requeued flit 17262
Requeued flit 17295
Requeued flit 17370
Requeued flit 17416
Requeued flit 17072
Requeued flit 17294
Requeued flit 17452
Requeued flit 17504
Requeued flit 17254
Requeued flit 17225
Requeued flit 17342
Requeued flit 17469
Requeued flit 17449
Requeued flit 17282
Requeued flit 17344
Requeued flit 17477
Requeued flit 17377
Requeued flit 17048
Requeued flit 17208
Requeued flit 17500
Requeued flit 17113
Requeued flit 17411
Requeued flit 17389
Requeued flit 17474
Requeued flit 17541
Requeued flit 17460
Requeued flit 17534
Requeued flit 17324
Requeued flit 17328
Requeued flit 17564
Requeued flit 17645
Requeued flit 17502
Requeued flit 17525
Requeued flit 17624
Requeued flit 17570
Requeued flit 17406
Requeued flit 17553
Requeued flit 17416
Requeued flit 17538
Requeued flit 17568
Requeued flit 17693
Requeued flit 17302
Requeued flit 17537
Requeued flit 17718
Requeued flit 17703
Requeued flit 17562
Requeued flit 17705
Requeued flit 17329
Requeued flit 17457
Requeued flit 17652
Requeued flit 17654
Requeued flit 17623
Requeued flit 17610
Requeued flit 17599
Requeued flit 17583
Requeued flit 17398
Requeued flit 17694
Requeued flit 17590
Requeued flit 17814
Requeued flit 17548
Requeued flit 17756
Requeued flit 17609
Requeued flit 17569
Requeued flit 17688
Requeued flit 17725
Requeued flit 17686
Requeued flit 17832
Requeued flit 17815
Requeued flit 17788
Requeued flit 17755
Requeued flit 17644
Requeued flit 17849
Requeued flit 17721
Requeued flit 17823
Requeued flit 17552
Requeued flit 17628
Requeued flit 17869
Requeued flit 17802
Requeued flit 17889
Requeued flit 17793
Requeued flit 17741
Requeued flit 17743
Requeued flit 17653
Requeued flit 17590
Requeued flit 17785
Requeued flit 17891
Requeued flit 17683
Requeued flit 17801
Requeued flit 17838
Requeued flit 17562
Requeued flit 17865
Requeued flit 17961
Requeued flit 17718
Requeued flit 17779
Requeued flit 17717
Requeued flit 17805
Requeued flit 17835
Requeued flit 17868
Requeued flit 17693
Requeued flit 17807
Requeued flit 17948
Requeued flit 17860
Requeued flit 17954
Requeued flit 17969
Requeued flit 18076
Requeued flit 18074
Requeued flit 17780
Requeued flit 18094
Requeued flit 17794
Requeued flit 18011
Requeued flit 18084
Requeued flit 18107
Requeued flit 18004
Requeued flit 17900
Requeued flit 17907
Requeued flit 17884
Requeued flit 18086
Requeued flit 18087
Requeued flit 17880
Requeued flit 18144
Requeued flit 18133
Requeued flit 17626
Requeued flit 18100
Requeued flit 18075
Requeued flit 17923
Requeued flit 18077
Requeued flit 17663
Requeued flit 18066
Requeued flit 18078
Requeued flit 18085
Requeued flit 18135
Requeued flit 17869
Requeued flit 17781
Requeued flit 17902
Requeued flit 18174
Requeued flit 17883
Requeued flit 18104
Requeued flit 17763
Requeued flit 18115
Requeued flit 17910
Requeued flit 18083
Requeued flit 18111
Requeued flit 18186
Requeued flit 18192
Requeued flit 18216
Requeued flit 18289
Requeued flit 18165
Requeued flit 18188
Requeued flit 17725
Requeued flit 18229
Requeued flit 17781
Requeued flit 18258
Requeued flit 18221
Requeued flit 18268
Requeued flit 18272
Requeued flit 18198
Requeued flit 18274
Requeued flit 18100
Requeued flit 18064
Requeued flit 18239
Requeued flit 18235
Requeued flit 18348
Requeued flit 18320
Requeued flit 18014
Requeued flit 18249
Requeued flit 18055
Requeued flit 18227
Requeued flit 18327
Requeued flit 18308
Requeued flit 18261
Requeued flit 18225
Requeued flit 18397
Requeued flit 18172
Requeued flit 18293
Requeued flit 18353
Requeued flit 18386
Requeued flit 18452
Requeued flit 18252
Requeued flit 18239
Requeued flit 18191
Requeued flit 18314
Requeued flit 18200
Requeued flit 18533
Requeued flit 17869
Requeued flit 18292
Requeued flit 18403
Requeued flit 18545
Requeued flit 18400
Requeued flit 18488
Requeued flit 18425
Requeued flit 18336
Requeued flit 18251
Requeued flit 18357
Requeued flit 18567
Requeued flit 18500
Requeued flit 18402
Requeued flit 18489
Requeued flit 18314
Requeued flit 18365
Requeued flit 18513
Requeued flit 18335
Requeued flit 18237
Requeued flit 18435
Requeued flit 18497
Requeued flit 18524
Requeued flit 18450
Requeued flit 18493
Requeued flit 18528
Requeued flit 18674
Requeued flit 18457
Requeued flit 18415
Requeued flit 18667
Requeued flit 18642
Requeued flit 18598
Requeued flit 18353
Requeued flit 18568
Requeued flit 18544
Requeued flit 18566
Requeued flit 18628
Requeued flit 18648
Requeued flit 18614
Requeued flit 18564
Requeued flit 18683
Requeued flit 18394
Requeued flit 18794
Requeued flit 18571
Requeued flit 18304
Requeued flit 18580
Requeued flit 18266
Requeued flit 18491
Requeued flit 18319
Requeued flit 18637
Requeued flit 18733
Requeued flit 18556
Requeued flit 18649
Requeued flit 18809
Requeued flit 18539
Requeued flit 18648
Requeued flit 18751
Requeued flit 18754
Requeued flit 18656
Requeued flit 18776
Requeued flit 18882
Requeued flit 18727
Requeued flit 18658
Requeued flit 18595
Requeued flit 18725
Requeued flit 18661
Requeued flit 18709
Requeued flit 18814
Requeued flit 18752
Requeued flit 18707
Requeued flit 18675
Requeued flit 18685
Requeued flit 18859
Requeued flit 18850
Requeued flit 18875
Requeued flit 18893
Requeued flit 18977
Requeued flit 18547
Requeued flit 18842
Requeued flit 18928
Requeued flit 18933
Requeued flit 18773
Requeued flit 18643
Requeued flit 18855
Requeued flit 18838
Requeued flit 19045
Requeued flit 18846
Requeued flit 19000
Requeued flit 18824
Requeued flit 18836
Requeued flit 18861
Requeued flit 18642
Requeued flit 18853
Requeued flit 18780
Requeued flit 19130
Requeued flit 19112
Requeued flit 18805
Requeued flit 19106
Requeued flit 18812
Requeued flit 19100
Requeued flit 18851
Requeued flit 19099
Requeued flit 18785
Requeued flit 19183
Requeued flit 19090
Requeued flit 18754
Requeued flit 19044
Requeued flit 19134
Requeued flit 19035
Requeued flit 18983
Requeued flit 19110
Requeued flit 18933
Requeued flit 19057
Requeued flit 19116
Requeued flit 19051
Requeued flit 19154
Requeued flit 19104
Requeued flit 19287
Requeued flit 19182
Requeued flit 19071
Requeued flit 19222
Requeued flit 19205
Requeued flit 19136
Requeued flit 19235
Requeued flit 19223
Requeued flit 19139
Requeued flit 19276
Requeued flit 19277
Requeued flit 19378
Requeued flit 19211
Requeued flit 19028
Requeued flit 19179
Requeued flit 19358
Requeued flit 19197
Requeued flit 19293
Requeued flit 19389
Requeued flit 19355
Requeued flit 19432
Requeued flit 19367
Requeued flit 19263
Requeued flit 19467
Requeued flit 19309
Requeued flit 19181
Requeued flit 18991
Requeued flit 19299
Requeued flit 19268
Requeued flit 19473
Requeued flit 19339
Requeued flit 19152
Requeued flit 19502
Requeued flit 19368
Requeued flit 19262
Requeued flit 19406
Requeued flit 19254
Requeued flit 19388
Requeued flit 19411
Requeued flit 19401
Requeued flit 19503
Requeued flit 19380
Requeued flit 19519
Requeued flit 19162
Requeued flit 19483
Requeued flit 19441
Requeued flit 19451
Requeued flit 19472
Requeued flit 19561
Requeued flit 19593
Requeued flit 19513
Requeued flit 19559
Requeued flit 19507
Requeued flit 19615
Requeued flit 19626
Requeued flit 19492
Requeued flit 19431
Requeued flit 19376
Requeued flit 19642
Requeued flit 19505
Requeued flit 19689
Requeued flit 19692
Requeued flit 19530
Requeued flit 19638
Requeued flit 19617
Requeued flit 19502
Requeued flit 19426
Requeued flit 19673
Requeued flit 19676
Requeued flit 19682
Requeued flit 19710
Requeued flit 19585
Requeued flit 19529
Requeued flit 19647
Requeued flit 19544
Requeued flit 19439
Requeued flit 19613
Requeued flit 19482
Requeued flit 19757
Requeued flit 19626
Requeued flit 19748
Requeued flit 19537
Requeued flit 19738
Requeued flit 19791
Requeued flit 19777
Requeued flit 19634
Requeued flit 19692
Requeued flit 19842
Requeued flit 19808
Requeued flit 19780
Requeued flit 19782
Requeued flit 19767
Requeued flit 19666
Requeued flit 19710
Requeued flit 19542
Requeued flit 19711
Requeued flit 19637
Requeued flit 19832
Requeued flit 19848
Requeued flit 19664
Requeued flit 19590
Requeued flit 19918
Requeued flit 19568
Requeued flit 19921
Requeued flit 19776
Requeued flit 19809
Requeued flit 19773
Requeued flit 19852
Requeued flit 19771
Requeued flit 19696
Requeued flit 19680
Requeued flit 19805
Requeued flit 19829
Requeued flit 19946
Requeued flit 19892
Requeued flit 19869
Requeued flit 19708
Requeued flit 19677
Requeued flit 19755
Requeued flit 19951
Requeued flit 19839
Requeued flit 19894
Requeued flit 19884
Requeued flit 19980
Requeued flit 19919
Requeued flit 19958
Requeued flit 19976
Requeued flit 19828
Requeued flit 19851
Requeued flit 19746
Requeued flit 19952
Requeued flit 19936
Requeued flit 19782
Requeued flit 19825
Requeued flit 19767
Requeued flit 19854
Requeued flit 20114
Requeued flit 19978
Requeued flit 19835
Requeued flit 19966
Requeued flit 19901
Requeued flit 19926
Requeued flit 20007
Requeued flit 19909
Requeued flit 19842
Requeued flit 19947
Requeued flit 19944
Requeued flit 19984
Requeued flit 19999
Requeued flit 20075
Requeued flit 19955
Requeued flit 19834
Requeued flit 20056
Requeued flit 20181
Requeued flit 20191
Requeued flit 19649
Requeued flit 20175
Requeued flit 19874
Requeued flit 20229
Requeued flit 20011
Requeued flit 20199
Requeued flit 19933
Requeued flit 20205
Requeued flit 20099
Requeued flit 20144
Requeued flit 20149
Requeued flit 20228
Requeued flit 20021
Requeued flit 20161
Requeued flit 20156
Requeued flit 20270
Requeued flit 20094
Requeued flit 20175
Requeued flit 19825
Requeued flit 20068
Requeued flit 20276
Requeued flit 20150
Requeued flit 20134
Requeued flit 20255
Requeued flit 20186
Requeued flit 19959
Requeued flit 20178
Requeued flit 19842
Requeued flit 20048
Requeued flit 20256
Requeued flit 20084
Requeued flit 20238
Requeued flit 20221
Requeued flit 20018
Requeued flit 19954
Requeued flit 20070
Requeued flit 20198
Requeued flit 20245
Requeued flit 20288
Requeued flit 19944
Requeued flit 20247
Requeued flit 19940
Requeued flit 20024
Requeued flit 20213
Requeued flit 20251
Requeued flit 19864
Requeued flit 20341
Requeued flit 20357
Requeued flit 20138
Requeued flit 20207
Requeued flit 20205
Requeued flit 20325
Requeued flit 20269
Requeued flit 20131
Requeued flit 20206
Requeued flit 20159
Requeued flit 20266
Requeued flit 20363
Requeued flit 20308
Requeued flit 20069
Requeued flit 20168
Requeued flit 20314
Requeued flit 20367
Requeued flit 20330
Requeued flit 20485
Requeued flit 20335
Requeued flit 20494
Requeued flit 20011
Requeued flit 20458
Requeued flit 20175
Requeued flit 20437
Requeued flit 20439
Requeued flit 20417
Requeued flit 20152
Requeued flit 20395
Requeued flit 20429
Requeued flit 20276
Requeued flit 20198
Requeued flit 20388
Requeued flit 20418
Requeued flit 20486
Requeued flit 20231
Requeued flit 20549
Requeued flit 20118
Requeued flit 20450
Requeued flit 20440
Requeued flit 20389
Requeued flit 20363
Requeued flit 20517
Requeued flit 20538
Requeued flit 20634
Requeued flit 20484
Requeued flit 20519
Requeued flit 20522
Requeued flit 20648
Requeued flit 20253
Requeued flit 20475
Requeued flit 20463
Requeued flit 20690
Requeued flit 20584
Requeued flit 20460
Requeued flit 20503
Requeued flit 20692
Requeued flit 20559
Requeued flit 20597
Requeued flit 20734
Requeued flit 20465
Requeued flit 20739
Requeued flit 20705
Requeued flit 20502
Requeued flit 20451
Requeued flit 20672
Requeued flit 20199
Requeued flit 20587
Requeued flit 20159
Requeued flit 20622
Requeued flit 20719
Requeued flit 20486
Requeued flit 20706
Requeued flit 20786
Requeued flit 20440
Requeued flit 20641
Requeued flit 20825
Requeued flit 20700
Requeued flit 20816
Requeued flit 20776
Requeued flit 20638
Requeued flit 20432
Requeued flit 20836
Requeued flit 20437
Requeued flit 20798
Requeued flit 20553
Requeued flit 20864
Requeued flit 20757
Requeued flit 20720
Requeued flit 20542
Requeued flit 20878
Requeued flit 20883
Requeued flit 20841
Requeued flit 20792
Requeued flit 20793
Requeued flit 20870
Requeued flit 20815
Requeued flit 20595
Requeued flit 20896
Requeued flit 20758
Requeued flit 20565
Requeued flit 20644
Requeued flit 20927
Requeued flit 20755
Requeued flit 20921
Requeued flit 20862
Requeued flit 20823
Requeued flit 20649
Requeued flit 20745
Requeued flit 20887
Requeued flit 20518
Requeued flit 20760
Requeued flit 20881
Requeued flit 20867
Requeued flit 20863
Requeued flit 20942
Requeued flit 20602
Requeued flit 20751
Requeued flit 20852
Requeued flit 20850
Requeued flit 20758
Requeued flit 20612
Requeued flit 20842
Requeued flit 20882
Requeued flit 20843
Requeued flit 20503
Requeued flit 20660
Requeued flit 21034
Requeued flit 20826
Requeued flit 20722
Requeued flit 20818
Requeued flit 20898
Requeued flit 21117
Requeued flit 21062
Requeued flit 20972
Requeued flit 20822
Requeued flit 20907
Requeued flit 21157
Requeued flit 20870
Requeued flit 20918
Requeued flit 21119
Requeued flit 21155
Requeued flit 20839
Requeued flit 21115
Requeued flit 21121
Requeued flit 21164
Requeued flit 21201
Requeued flit 20595
Requeued flit 20881
Requeued flit 21140
Requeued flit 21039
Requeued flit 21234
Requeued flit 20942
Requeued flit 21036
Requeued flit 21226
Requeued flit 20998
Requeued flit 21228
Requeued flit 21133
Requeued flit 20963
Requeued flit 21177
Requeued flit 21214
Requeued flit 20952
Requeued flit 21082
Requeued flit 21110
Requeued flit 21282
Requeued flit 21249
Requeued flit 21093
Requeued flit 21300
Requeued flit 21135
Requeued flit 20982
Requeued flit 21212
Requeued flit 21289
Requeued flit 21089
Requeued flit 21052
Requeued flit 21274
Requeued flit 21334
Requeued flit 21331
Requeued flit 21239
Requeued flit 21125
Requeued flit 21278
Requeued flit 21375
Requeued flit 21250
Requeued flit 21243
Requeued flit 21180
Requeued flit 21258
Requeued flit 21300
Requeued flit 21402
Requeued flit 21428
Requeued flit 21395
Requeued flit 21388
Requeued flit 21514
Requeued flit 21443
Requeued flit 21133
Requeued flit 21535
Requeued flit 21260
Requeued flit 21205
Requeued flit 21544
Requeued flit 21288
Requeued flit 21309
Requeued flit 21457
Requeued flit 21082
Requeued flit 21316
Requeued flit 21479
Requeued flit 21390
Requeued flit 21259
Requeued flit 21447
Requeued flit 21195
Requeued flit 21180
Requeued flit 21466
Requeued flit 21338
Requeued flit 21609
Requeued flit 21548
Requeued flit 21558
Requeued flit 21630
Requeued flit 21528
Requeued flit 21366
Requeued flit 21477
Requeued flit 21665
Requeued flit 21621
Requeued flit 21587
Requeued flit 21669
Requeued flit 21596
Requeued flit 21540
Requeued flit 21395
Requeued flit 21360
Requeued flit 21492
Requeued flit 21331
Requeued flit 21522
Requeued flit 21567
Requeued flit 21581
Requeued flit 21658
Requeued flit 21621
Requeued flit 21480
Requeued flit 21629
Requeued flit 21765
Requeued flit 21741
Requeued flit 21180
Requeued flit 21632
Requeued flit 21782
Requeued flit 21745
Requeued flit 21549
Requeued flit 21761
Requeued flit 21854
Requeued flit 21767
Requeued flit 21771
Requeued flit 21657
Requeued flit 21677
Requeued flit 21876
Requeued flit 21772
Requeued flit 21851
Requeued flit 21775
Requeued flit 21585
Requeued flit 21830
Requeued flit 21776
Requeued flit 21895
Requeued flit 21602
Requeued flit 21834
Requeued flit 21802
Requeued flit 21663
Requeued flit 21742
Requeued flit 21697
Requeued flit 21960
Requeued flit 21679
Requeued flit 21934
Requeued flit 22010
Requeued flit 21691
Requeued flit 21888
Requeued flit 21910
Requeued flit 21779
Requeued flit 21862
Requeued flit 21830
Requeued flit 21980
Requeued flit 21925
Requeued flit 22002
Requeued flit 21935
Requeued flit 21883
Requeued flit 22007
Requeued flit 22084
Requeued flit 22028
Requeued flit 21833
Requeued flit 21924
Requeued flit 21806
Requeued flit 21911
Requeued flit 21894
Requeued flit 21658
Requeued flit 22120
Requeued flit 22005
Requeued flit 21732
Requeued flit 21942
Requeued flit 22015
Requeued flit 21715
Requeued flit 22021
Requeued flit 22066
Requeued flit 21930
Requeued flit 21975
Requeued flit 21908
Requeued flit 22142
Requeued flit 21891
Requeued flit 22041
Requeued flit 22130
Requeued flit 22023
Requeued flit 21999
Requeued flit 22121
Requeued flit 21931
Requeued flit 22079
Requeued flit 21884
Requeued flit 22126
Requeued flit 22190
Requeued flit 22069
Requeued flit 22224
Requeued flit 22149
Requeued flit 21677
Requeued flit 22031
Requeued flit 21885
Requeued flit 22081
Requeued flit 22166
Requeued flit 22040
Requeued flit 21976
Requeued flit 22086
Requeued flit 22265
Requeued flit 21975
Requeued flit 21908
Requeued flit 22054
Requeued flit 22174
Requeued flit 22146
Requeued flit 22091
Requeued flit 21995
Requeued flit 22314
Requeued flit 22358
Requeued flit 22147
Requeued flit 22290
Requeued flit 22216
Requeued flit 22226
Requeued flit 22116
Requeued flit 22071
Requeued flit 22394
Requeued flit 22227
Requeued flit 22192
Requeued flit 22245
Requeued flit 22244
Requeued flit 22357
Requeued flit 22247
Requeued flit 22128
Requeued flit 22316
Requeued flit 22411
Requeued flit 22422
Requeued flit 22291
Requeued flit 22177
Requeued flit 22086
Requeued flit 22374
Requeued flit 22273
Requeued flit 22412
Requeued flit 22208
Requeued flit 22353
Requeued flit 22135
Requeued flit 22519
Requeued flit 22390
Requeued flit 22480
Requeued flit 22425
Requeued flit 22304
Requeued flit 22520
Requeued flit 22217
Requeued flit 22457
Requeued flit 22383
Requeued flit 22310
Requeued flit 22285
Requeued flit 22473
Requeued flit 22246
Requeued flit 22495
Requeued flit 22513
Requeued flit 22584
Requeued flit 22511
Requeued flit 22569
Requeued flit 22227
Requeued flit 22404
Requeued flit 22522
Requeued flit 22553
Requeued flit 22651
Requeued flit 22445
Requeued flit 22166
Requeued flit 22481
Requeued flit 22442
Requeued flit 22589
Requeued flit 22504
Requeued flit 22640
Requeued flit 22602
Requeued flit 22443
Requeued flit 22684
Requeued flit 22436
Requeued flit 22615
Requeued flit 22542
Requeued flit 22691
Requeued flit 22637
Requeued flit 22260
Requeued flit 22654
Requeued flit 22674
Requeued flit 22703
Requeued flit 22246
Requeued flit 22379
Requeued flit 22587
Requeued flit 22748
Requeued flit 22678
Requeued flit 22577
Requeued flit 22623
Requeued flit 22710
Requeued flit 22685
Requeued flit 22675
Requeued flit 22540
Requeued flit 22512
Requeued flit 22445
Requeued flit 22592
Requeued flit 22501
Requeued flit 22711
Requeued flit 22624
Requeued flit 22267
Requeued flit 22767
Requeued flit 22699
Requeued flit 22875
Requeued flit 22759
Requeued flit 22810
Requeued flit 22735
Requeued flit 22647
Requeued flit 22748
Requeued flit 22655
Requeued flit 22727
Requeued flit 22693
Requeued flit 22756
Requeued flit 22705
Requeued flit 22769
Requeued flit 22817
[...]
Requeued flit 763926
Requeued flit 763811
Requeued flit 763766
Requeued flit 763901
Requeued flit 763789
Requeued flit 763879
Requeued flit 763606
Requeued flit 763742
Requeued flit 763965
Requeued flit 763872
Requeued flit 763792
Requeued flit 763884
Requeued flit 763988
Requeued flit 764029
Requeued flit 764024
Requeued flit 763971
Requeued flit 764003
Requeued flit 763826
Requeued flit 763868
Requeued flit 764048
Requeued flit 763718
Requeued flit 763881
Requeued flit 763802
Requeued flit 763679
Requeued flit 763741
Requeued flit 763852
Requeued flit 763977
Requeued flit 763887
Requeued flit 763983
Requeued flit 764058
Requeued flit 763685
Requeued flit 764028
Requeued flit 763864
Requeued flit 763863
Requeued flit 764069
Requeued flit 763785
Requeued flit 763867
Requeued flit 764133
Requeued flit 764037
Requeued flit 763987
Requeued flit 764075
Requeued flit 763703
Requeued flit 763937
Requeued flit 764088
Requeued flit 764011
Requeued flit 764044
Requeued flit 763801
Requeued flit 763973
Requeued flit 764093
Requeued flit 763963
Requeued flit 764230
Requeued flit 764072
Requeued flit 764211
Requeued flit 763817
Requeued flit 763793
Requeued flit 764081
Requeued flit 764184
Requeued flit 763679
Requeued flit 763935
Requeued flit 763895
Requeued flit 764128
Requeued flit 764201
Requeued flit 764265
Requeued flit 764047
Requeued flit 764266
Requeued flit 764132
Requeued flit 764097
Requeued flit 764204
Requeued flit 764066
Requeued flit 764141
Requeued flit 763958
Requeued flit 764190
Requeued flit 764183
Requeued flit 763988
Requeued flit 764358
Requeued flit 764108
Requeued flit 764308
Requeued flit 764211
Requeued flit 764013
Requeued flit 764361
Requeued flit 763926
Requeued flit 764346
Requeued flit 764159
Requeued flit 764385
Requeued flit 764131
Requeued flit 764281
Requeued flit 764456
Requeued flit 764454
Requeued flit 764481
Requeued flit 764294
Requeued flit 764314
Requeued flit 764317
Requeued flit 764396
Requeued flit 764437
Requeued flit 764380
Requeued flit 764320
Requeued flit 764186
Requeued flit 764457
Requeued flit 764500
Requeued flit 764187
Requeued flit 764503
Requeued flit 764416
Requeued flit 764438
Requeued flit 764441
Requeued flit 764028
Requeued flit 764495
Requeued flit 764499
Requeued flit 764511
Requeued flit 764529
Requeued flit 764313
Requeued flit 764384
Requeued flit 764490
Requeued flit 764288
Requeued flit 764281
Requeued flit 764488
Requeued flit 764497
Requeued flit 764570
Requeued flit 764571
Requeued flit 764472
Requeued flit 764362
Requeued flit 764487
Requeued flit 764510
Requeued flit 764565
Requeued flit 764566
Requeued flit 764408
Requeued flit 764555
Requeued flit 764532
Requeued flit 764387
Requeued flit 764443
Requeued flit 764394
Requeued flit 764578
Requeued flit 764591
Requeued flit 764513
Requeued flit 764388
Requeued flit 764654
Requeued flit 764463
Requeued flit 764587
Requeued flit 764652
Requeued flit 764631
Requeued flit 764389
Requeued flit 764664
Requeued flit 764680
Requeued flit 764722
Requeued flit 764458
Requeued flit 764670
Requeued flit 764690
Requeued flit 764317
Requeued flit 764457
Requeued flit 764556
Requeued flit 764607
Requeued flit 764704
Requeued flit 764625
Requeued flit 764640
Requeued flit 764613
Requeued flit 764544
Requeued flit 764718
Requeued flit 764689
Requeued flit 764685
Requeued flit 764760
Requeued flit 764713
Requeued flit 764597
Requeued flit 764716
Requeued flit 764389
Requeued flit 764615
Requeued flit 764794
Requeued flit 764741
Requeued flit 764528
Requeued flit 764623
Requeued flit 764678
Requeued flit 764707
Requeued flit 764719
Requeued flit 764708
Requeued flit 764871
Requeued flit 764797
Requeued flit 764807
Requeued flit 764842
Requeued flit 764769
Requeued flit 764788
Requeued flit 764803
Requeued flit 764897
Requeued flit 764661
Requeued flit 764856
Requeued flit 764706
Requeued flit 764864
Requeued flit 764777
Requeued flit 764911
Requeued flit 764675
Requeued flit 764853
Requeued flit 764857
Requeued flit 764848
Requeued flit 764731
Requeued flit 764786
Requeued flit 764887
Requeued flit 764745
Requeued flit 764895
Requeued flit 764654
Requeued flit 764734
Requeued flit 764850
Requeued flit 765017
Requeued flit 764910
Requeued flit 764954
Requeued flit 764973
Requeued flit 764754
Requeued flit 764848
Requeued flit 764978
Requeued flit 764904
Requeued flit 764851
Requeued flit 765054
Requeued flit 764828
Requeued flit 764838
Requeued flit 765051
Requeued flit 765112
Requeued flit 764675
Requeued flit 764994
Requeued flit 765106
Requeued flit 764513
Requeued flit 765109
Requeued flit 764807
Requeued flit 764958
Requeued flit 764843
Requeued flit 765127
Requeued flit 765014
Requeued flit 764780
Requeued flit 764840
Requeued flit 765031
Requeued flit 764964
Requeued flit 765207
Requeued flit 765169
Requeued flit 765095
Requeued flit 765157
Requeued flit 765225
Requeued flit 765091
Requeued flit 765221
Requeued flit 764990
Requeued flit 765129
Requeued flit 765074
Requeued flit 765126
Requeued flit 765262
Requeued flit 765286
Requeued flit 765199
Requeued flit 765081
Requeued flit 765118
Requeued flit 765300
Requeued flit 765195
Requeued flit 765062
Requeued flit 764995
Requeued flit 764984
Requeued flit 765282
Requeued flit 765295
Requeued flit 765313
Requeued flit 765130
Requeued flit 765117
Requeued flit 765138
Requeued flit 764994
Requeued flit 765265
Requeued flit 765072
Requeued flit 765296
Requeued flit 765351
Requeued flit 765167
Requeued flit 764840
Requeued flit 765264
Requeued flit 765085
Requeued flit 765244
Requeued flit 765270
Requeued flit 765138
Requeued flit 765451
Requeued flit 765233
Requeued flit 765428
Requeued flit 765289
Requeued flit 765239
Requeued flit 765351
Requeued flit 765359
Requeued flit 765224
Requeued flit 765386
Requeued flit 764929
Requeued flit 765226
Requeued flit 765235
Requeued flit 765231
Requeued flit 765446
Requeued flit 765328
Requeued flit 765499
Requeued flit 765402
Requeued flit 765398
Requeued flit 765448
Requeued flit 765265
Requeued flit 765406
Requeued flit 765434
Requeued flit 765417
Requeued flit 765471
Requeued flit 765299
Requeued flit 765331
Requeued flit 765340
Requeued flit 765599
Requeued flit 765533
Requeued flit 765467
Requeued flit 765588
Requeued flit 765348
Requeued flit 765466
Requeued flit 765584
Requeued flit 765498
Requeued flit 765551
Requeued flit 765526
Requeued flit 765529
Requeued flit 765499
Requeued flit 765481
Requeued flit 765572
Requeued flit 765274
Requeued flit 765634
Requeued flit 765662
Requeued flit 765648
Requeued flit 765539
Requeued flit 765469
Requeued flit 765604
Requeued flit 765406
Requeued flit 765533
Requeued flit 765505
Requeued flit 765632
Requeued flit 765700
Requeued flit 765752
Requeued flit 765706
Requeued flit 765606
Requeued flit 765609
Requeued flit 765511
Requeued flit 765762
Requeued flit 765516
Requeued flit 765646
Requeued flit 765600
Requeued flit 765629
Requeued flit 765444
Requeued flit 765797
Requeued flit 765693
Requeued flit 765719
Requeued flit 765759
Requeued flit 765508
Requeued flit 765636
Requeued flit 765802
Requeued flit 765584
Requeued flit 765426
Requeued flit 765792
Requeued flit 765686
Requeued flit 765497
Requeued flit 765650
Requeued flit 765819
Requeued flit 765778
Requeued flit 765559
Requeued flit 765873
Requeued flit 765759
Requeued flit 765823
Requeued flit 765898
Requeued flit 765763
Requeued flit 765795
Requeued flit 765736
Requeued flit 765862
Requeued flit 765803
Requeued flit 765572
Requeued flit 765811
Requeued flit 765676
Requeued flit 765793
Requeued flit 765632
Requeued flit 765847
Requeued flit 765651
Requeued flit 765957
Requeued flit 765890
Requeued flit 765832
Requeued flit 765843
Requeued flit 765877
Requeued flit 765790
Requeued flit 765788
Requeued flit 765792
Requeued flit 765938
Requeued flit 765940
Requeued flit 765924
Requeued flit 765538
Requeued flit 765986
Requeued flit 765895
Requeued flit 765992
Requeued flit 766057
Requeued flit 765871
Requeued flit 765979
Requeued flit 765704
Requeued flit 765836
Requeued flit 765875
Requeued flit 766023
Requeued flit 765999
Requeued flit 765860
Requeued flit 765968
Requeued flit 765775
Requeued flit 765604
Requeued flit 765803
Requeued flit 765844
Requeued flit 765905
Requeued flit 766085
Requeued flit 766043
Requeued flit 766022
Requeued flit 765806
Requeued flit 766051
Requeued flit 765888
Requeued flit 766020
Requeued flit 765908
Requeued flit 765863
Requeued flit 766000
Requeued flit 766182
Requeued flit 765894
Requeued flit 765763
Requeued flit 765954
Requeued flit 765959
Requeued flit 766035
Requeued flit 765972
Requeued flit 766054
Requeued flit 766010
Requeued flit 766111
Requeued flit 766061
Requeued flit 766241
Requeued flit 766141
Requeued flit 766166
Requeued flit 766007
Requeued flit 766232
Requeued flit 766233
Requeued flit 766096
Requeued flit 766294
Requeued flit 765905
Requeued flit 766304
Requeued flit 766187
Requeued flit 766039
Requeued flit 765994
Requeued flit 766278
Requeued flit 765973
Requeued flit 766146
Requeued flit 766162
Requeued flit 766084
Requeued flit 766204
Requeued flit 766322
Requeued flit 765979
Requeued flit 766093
Requeued flit 766251
Requeued flit 766357
Requeued flit 766196
Requeued flit 765668
Requeued flit 766197
Requeued flit 766186
Requeued flit 766055
Requeued flit 766312
Requeued flit 766398
Requeued flit 766227
Requeued flit 766311
Requeued flit 766147
Requeued flit 766343
Requeued flit 766348
Requeued flit 766220
Requeued flit 766410
Requeued flit 766212
Requeued flit 766353
Requeued flit 766262
Requeued flit 766371
Requeued flit 766040
Requeued flit 766178
Requeued flit 766144
Requeued flit 766217
Requeued flit 766342
Requeued flit 766472
Requeued flit 766324
Requeued flit 766499
Requeued flit 766436
Requeued flit 766320
Requeued flit 766504
Requeued flit 766023
Requeued flit 766365
Requeued flit 766524
Requeued flit 766423
Requeued flit 766408
Requeued flit 766455
Requeued flit 766456
Requeued flit 766379
Requeued flit 766354
Requeued flit 766428
Requeued flit 766111
Requeued flit 766536
Requeued flit 766346
Requeued flit 766223
Requeued flit 766546
Requeued flit 766096
Requeued flit 766529
Requeued flit 766586
Requeued flit 766607
Requeued flit 766396
Requeued flit 766439
Requeued flit 766392
Requeued flit 766608
Requeued flit 766523
Requeued flit 766507
Requeued flit 766569
Requeued flit 766524
Requeued flit 766249
Requeued flit 766281
Requeued flit 766516
Requeued flit 766494
Requeued flit 766500
Requeued flit 766191
Requeued flit 766187
Requeued flit 766424
Requeued flit 766505
Requeued flit 766585
Requeued flit 766245
Requeued flit 766409
Requeued flit 766375
Requeued flit 766589
Requeued flit 766624
Requeued flit 766481
Requeued flit 766484
Requeued flit 766627
Requeued flit 766591
Requeued flit 766330
Requeued flit 766466
Requeued flit 766697
Requeued flit 766727
Requeued flit 766611
Requeued flit 766376
Requeued flit 766354
Requeued flit 766604
Requeued flit 766680
Requeued flit 766532
Requeued flit 766613
Requeued flit 766621
Requeued flit 766586
Requeued flit 766187
Requeued flit 766393
Requeued flit 766617
Requeued flit 766800
Requeued flit 766696
Requeued flit 766584
Requeued flit 766714
Requeued flit 766679
Requeued flit 766558
Requeued flit 766386
Requeued flit 766736
Requeued flit 766683
Requeued flit 766787
Requeued flit 766668
Requeued flit 766853
Requeued flit 766822
Requeued flit 766522
Requeued flit 766734
Requeued flit 766792
Requeued flit 766603
Requeued flit 766808
Requeued flit 766581
Requeued flit 766567
Requeued flit 766839
Requeued flit 766751
Requeued flit 766393
Requeued flit 766330
Requeued flit 766858
Requeued flit 766722
Requeued flit 766720
Requeued flit 766788
Requeued flit 766826
Requeued flit 766970
Requeued flit 766753
Requeued flit 766759
Requeued flit 766836
Requeued flit 766790
Requeued flit 766841
Requeued flit 766893
Requeued flit 766915
Requeued flit 766969
Requeued flit 766924
Requeued flit 766197
Requeued flit 766800
Requeued flit 766995
Requeued flit 766881
Requeued flit 766847
Requeued flit 766824
Requeued flit 766839
Requeued flit 767066
Requeued flit 767001
Requeued flit 766934
Requeued flit 766981
Requeued flit 766942
Requeued flit 766700
Requeued flit 767132
Requeued flit 766701
Requeued flit 766930
Requeued flit 767110
Requeued flit 767054
Requeued flit 767013
Requeued flit 767022
Requeued flit 766909
Requeued flit 767129
Requeued flit 767074
Requeued flit 766925
Requeued flit 767065
Requeued flit 767148
Requeued flit 767107
Requeued flit 766826
Requeued flit 766895
Requeued flit 767118
Requeued flit 766750
Requeued flit 767135
Requeued flit 767138
Requeued flit 766924
Requeued flit 766975
Requeued flit 766751
Requeued flit 766986
Requeued flit 766923
Requeued flit 767072
Requeued flit 767132
Requeued flit 767179
Requeued flit 767067
Requeued flit 766931
Requeued flit 767213
Requeued flit 767089
Requeued flit 767066
Requeued flit 767261
Requeued flit 767226
Requeued flit 767021
Requeued flit 767145
Requeued flit 767071
Requeued flit 766964
Requeued flit 767152
Requeued flit 767186
Requeued flit 767110
Requeued flit 767111
Requeued flit 767013
Requeued flit 767220
Requeued flit 767256
Requeued flit 766710
Requeued flit 767081
Requeued flit 767108
Requeued flit 767188
Requeued flit 767265
Requeued flit 767324
Requeued flit 767338
Class 0:
Packet latency average = 23.184
	minimum = 5
	maximum = 108
Network latency average = 23.184
	minimum = 5
	maximum = 108
Slowest packet = 456240
Flit latency average = 23.1878
	minimum = 5
	maximum = 108
Slowest flit = 456240
Fragmentation average = 0
	minimum = 0
	maximum = 0
Injected packet rate average = 0.199899
	minimum = 0.1937 (at node 55)
	maximum = 0.206733 (at node 52)
Accepted packet rate average = 0.199902
	minimum = 0.194067 (at node 62)
	maximum = 0.2061 (at node 37)
Injected flit rate average = 0.199899
	minimum = 0.1937 (at node 55)
	maximum = 0.206733 (at node 52)
Accepted flit rate average= 0.199902
	minimum = 0.194067 (at node 62)
	maximum = 0.2061 (at node 37)
Injected packet length average = 1
Accepted packet length average = 1
Total in-flight flits = 294 (294 measured)
latency change    = 0.000156582
throughput change = 0.000436412
Draining all recorded packets ...
in flight = 294
in flight = 287
Requeued flit 767128
in flight = 277
Requeued flit 767175
Requeued flit 767212
Requeued flit 767283
in flight = 265
Requeued flit 767143
Requeued flit 767274
Requeued flit 767100
Requeued flit 767241
in flight = 246
in flight = 235
Requeued flit 767355
Requeued flit 767249
in flight = 223
Requeued flit 767358
Requeued flit 767223
Requeued flit 767163
Requeued flit 767199
Requeued flit 767315
in flight = 212
Requeued flit 767322
Requeued flit 767197
Requeued flit 767324
Requeued flit 767251
Requeued flit 767102
in flight = 197
Requeued flit 767303
in flight = 185
Requeued flit 767385
Requeued flit 767326
Requeued flit 767376
Requeued flit 767053
in flight = 171
in flight = 163
Requeued flit 767344
in flight = 145
Requeued flit 767406
in flight = 133
Requeued flit 767420
Requeued flit 767466
in flight = 121
Requeued flit 767372
Requeued flit 767306
Requeued flit 766964
in flight = 111
Requeued flit 767434
Requeued flit 767398
Requeued flit 767403
Requeued flit 767316
in flight = 104
Requeued flit 767348
in flight = 95
Requeued flit 767343
Requeued flit 767364
Requeued flit 767338
in flight = 90
Requeued flit 767549
Requeued flit 767399
Requeued flit 767502
Requeued flit 767366
Requeued flit 767299
in flight = 76
Requeued flit 767245
Requeued flit 767534
in flight = 64
in flight = 54
Requeued flit 767600
Requeued flit 767504
Requeued flit 767554
in flight = 48
Requeued flit 767638
Requeued flit 767445
in flight = 44
Requeued flit 767578
in flight = 41
Requeued flit 767676
Requeued flit 767497
in flight = 35
Requeued flit 767590
Requeued flit 767342
Requeued flit 767557
in flight = 34
Requeued flit 767479
Requeued flit 767623
in flight = 31
Requeued flit 767646
in flight = 27
Requeued flit 767597
Requeued flit 767569
Requeued flit 767652
in flight = 26
Requeued flit 767555
Requeued flit 767468
Requeued flit 767760
in flight = 24
Requeued flit 767703
Requeued flit 767570
Requeued flit 767746
Requeued flit 767546
Requeued flit 767575
in flight = 19
Requeued flit 767244
Requeued flit 767303
Requeued flit 767779
Requeued flit 767490
Requeued flit 767306
Requeued flit 767636
in flight = 17
Requeued flit 767368
Requeued flit 767762
in flight = 16
Requeued flit 767796
Requeued flit 767489
Requeued flit 767526
in flight = 14
Requeued flit 767775
Requeued flit 767584
Requeued flit 767810
in flight = 13
Requeued flit 767585
Requeued flit 767785
Requeued flit 767569
Requeued flit 767709
in flight = 12
Requeued flit 767783
Requeued flit 767797
in flight = 9
Requeued flit 767755
Requeued flit 767697
Requeued flit 767639
in flight = 7
Requeued flit 767676
in flight = 6
in flight = 5
in flight = 4
Requeued flit 767610
in flight = 3
Requeued flit 767634
in flight = 2
Requeued flit 767806
Requeued flit 767703
Requeued flit 767767
Requeued flit 767802
in flight = 1
Requeued flit 767729
Requeued flit 767627
Requeued flit 767834
in flight = 1
Requeued flit 767916
Requeued flit 767816
in flight = 1
Requeued flit 767715
Requeued flit 767773
Requeued flit 767741
Requeued flit 767742
Requeued flit 767833
Requeued flit 767857
Draining remaining packets ...
Requeued flit 767826
Requeued flit 767895
Requeued flit 767793
Requeued flit 768006
Requeued flit 767872
Requeued flit 767778
Requeued flit 767989
Requeued flit 767837
Requeued flit 767810
Requeued flit 768022
Requeued flit 767811
Requeued flit 767843
Requeued flit 768060
Requeued flit 767912
Requeued flit 767703
Requeued flit 767880
Requeued flit 768018
Requeued flit 767812
Requeued flit 767946
Requeued flit 767873
Requeued flit 768062
Requeued flit 768024
Requeued flit 767723
Requeued flit 767945
Requeued flit 767918
Requeued flit 768055
Requeued flit 767926
Requeued flit 767840
Requeued flit 768072
Requeued flit 768039
Requeued flit 768090
Requeued flit 768003
Requeued flit 767778
Requeued flit 767988
Requeued flit 768019
Requeued flit 767804
Requeued flit 768004
Requeued flit 767975
Requeued flit 767974
Requeued flit 768017
Requeued flit 768049
Requeued flit 768021
Requeued flit 768043
Requeued flit 767834
Requeued flit 768073
Requeued flit 768024
Requeued flit 767962
Requeued flit 768071
Requeued flit 767994
Class 0:
Remaining flits: 767931 767975 767989 768001 768005 768011 768017 768055 (8 flits)
Measured flits: (0 flits)
WARNING: Possible network deadlock.
Class 0:
Remaining flits: 767931 767975 767989 768001 768005 768011 768017 768055 (8 flits)
Measured flits: (0 flits)
WARNING: Possible network deadlock.
Class 0:
Remaining flits: 767931 767975 767989 768001 768005 768011 768017 768055 (8 flits)
Measured flits: (0 flits)
WARNING: Possible network deadlock.
Class 0:
Remaining flits: 767931 767975 767989 768001 768005 768011 768017 768055 (8 flits)
Measured flits: (0 flits)
Time taken is 61047 cycles
====== Overall Traffic Statistics ======
====== Traffic class 0 ======
Packet latency average = 23.1877 (1 samples)
	minimum = 5 (1 samples)
	maximum = 108 (1 samples)
Network latency average = 23.1877 (1 samples)
	minimum = 5 (1 samples)
	maximum = 108 (1 samples)
Flit latency average = 23.1914 (1 samples)
	minimum = 5 (1 samples)
	maximum = 108 (1 samples)
Fragmentation average = 0 (1 samples)
	minimum = 0 (1 samples)
	maximum = 0 (1 samples)
Injected packet rate average = 0.199899 (1 samples)
	minimum = 0.1937 (1 samples)
	maximum = 0.206733 (1 samples)
Accepted packet rate average = 0.199902 (1 samples)
	minimum = 0.194067 (1 samples)
	maximum = 0.2061 (1 samples)
Injected flit rate average = 0.199899 (1 samples)
	minimum = 0.1937 (1 samples)
	maximum = 0.206733 (1 samples)
Accepted flit rate average = 0.199902 (1 samples)
	minimum = 0.194067 (1 samples)
	maximum = 0.2061 (1 samples)
Injected packet size average = 1 (1 samples)
Accepted packet size average = 1 (1 samples)
Hops average = 6.25271 (1 samples)
Total run time 137.839
