BEGIN Configuration File: examples/ecc_mesh88_config_1_0.300_link_3
// $Id$

// Copyright (c) 2007-2015, Trustees of The Leland Stanford Junior University
// All rights reserved.
//
// Redistribution and use in source and binary forms, with or without
// modification, are permitted provided that the following conditions are met:
//
// Redistributions of source code must retain the above copyright notice, this
// list of conditions and the following disclaimer.
// Redistributions in binary form must reproduce the above copyright notice,
// this list of conditions and the following disclaimer in the documentation
// and/or other materials provided with the distribution.
//
// THIS SOFTWARE IS PROVIDED BY THE COPYRIGHT HOLDERS AND CONTRIBUTORS "AS IS"
// AND ANY EXPRESS OR IMPLIED WARRANTIES, INCLUDING, BUT NOT LIMITED TO, THE
// IMPLIED WARRANTIES OF MERCHANTABILITY AND FITNESS FOR A PARTICULAR PURPOSE
// ARE DISCLAIMED. IN NO EVENT SHALL THE COPYRIGHT OWNER OR CONTRIBUTORS BE
// LIABLE FOR ANY DIRECT, INDIRECT, INCIDENTAL, SPECIAL, EXEMPLARY, OR
// CONSEQUENTIAL DAMAGES (INCLUDING, BUT NOT LIMITED TO, PROCUREMENT OF
// SUBSTITUTE GOODS OR SERVICES; LOSS OF USE, DATA, OR PROFITS; OR BUSINESS
// INTERRUPTION) HOWEVER CAUSED AND ON ANY THEORY OF LIABILITY, WHETHER IN
// CONTRACT, STRICT LIABILITY, OR TORT (INCLUDING NEGLIGENCE OR OTHERWISE)
// ARISING IN ANY WAY OUT OF THE USE OF THIS SOFTWARE, EVEN IF ADVISED OF THE
// POSSIBILITY OF SUCH DAMAGE.

// Dragonfly
//




vc_buf_size = 256;


wait_for_tail_credit = 0;

//
// Router architecture
//
vc_allocator = separable_input_first; 
sw_allocator = separable_input_first;
alloc_iters  = 1;

credit_delay   = 2;
routing_delay  = 0;
vc_alloc_delay = 1;
sw_alloc_delay = 1;
st_final_delay = 1;

input_speedup     = 1;
output_speedup    = 1;
internal_speedup  = 2.0;


warmup_periods = 3;
sim_count          = 1;

sample_period  = 10000;  


routing_function = dor;
num_vcs     = 2;

priority = none;
traffic       = uniform; 

injection_rate = 0.3;
packet_size = 1;
injection_rate_uses_flits = 1;

topology = mesh;

k  = 8;
n  = 2;

fer = 3;
ecc = link;

watch_out=-;
//watch_file = watch.txt;

ecc = link;

stats_out = examples/ecc_mesh88_config_1_0.300_link_3.m;

END Configuration File: examples/ecc_mesh88_config_1_0.300_link_3
1
Received nack credit for flit 35
Requeued flit 35
2
4
Received nack credit for flit 424
Requeued flit 424
Received nack credit for flit 356
Requeued flit 356
3
3
Received nack credit for flit 582
Requeued flit 582
Received nack credit for flit 604
Requeued flit 604
2
5
Received nack credit for flit 789
Requeued flit 789
Received nack credit for flit 630
Requeued flit 630
3
3
Received nack credit for flit 1015
Requeued flit 1015
3
Received nack credit for flit 1052
Requeued flit 1052
Received nack credit for flit 1126
Requeued flit 1126
6
7
Received nack credit for flit 1316
Requeued flit 1316
4
Received nack credit for flit 1266
Requeued flit 1266
Received nack credit for flit 1552
Requeued flit 1552
1
1
Received nack credit for flit 2048
Requeued flit 2048
Received nack credit for flit 2148
Requeued flit 2148
5
Received nack credit for flit 1984
Requeued flit 1984
1
Received nack credit for flit 2669
Requeued flit 2669
6
4
Received nack credit for flit 2558
Requeued flit 2558
Received nack credit for flit 2748
Requeued flit 2748
1
2
Received nack credit for flit 3595
Requeued flit 3595
Received nack credit for flit 3547
Requeued flit 3547
5
Received nack credit for flit 3488
Requeued flit 3488
4
4
8
Received nack credit for flit 3743
Requeued flit 3743
Received nack credit for flit 3805
Requeued flit 3805
Received nack credit for flit 3542
Requeued flit 3542
5
Received nack credit for flit 4280
Requeued flit 4280
3
1
Received nack credit for flit 4663
Requeued flit 4663
Received nack credit for flit 4910
Requeued flit 4910
2
5
Received nack credit for flit 4990
Requeued flit 4990
Received nack credit for flit 4899
Requeued flit 4899
8
1
Received nack credit for flit 4988
Requeued flit 4988
Received nack credit for flit 5502
Requeued flit 5502
2
6
Received nack credit for flit 5961
Requeued flit 5961
Received nack credit for flit 5778
Requeued flit 5778
3
Received nack credit for flit 6138
Requeued flit 6138
2
1
Received nack credit for flit 7177
Requeued flit 7177
4
Received nack credit for flit 7337
Requeued flit 7337
Received nack credit for flit 7234
Requeued flit 7234
5
4
2
Received nack credit for flit 7287
Requeued flit 7287
Received nack credit for flit 7406
Requeued flit 7406
Received nack credit for flit 7528
Requeued flit 7528
7
Received nack credit for flit 7604
Requeued flit 7604
4
Received nack credit for flit 8001
Requeued flit 8001
2
1
1
Received nack credit for flit 8227
Requeued flit 8227
Received nack credit for flit 8344
Requeued flit 8344
Received nack credit for flit 8359
Requeued flit 8359
1
Received nack credit for flit 8941
Requeued flit 8941
2
1
Received nack credit for flit 9077
Requeued flit 9077
Received nack credit for flit 9199
Requeued flit 9199
1
Received nack credit for flit 9554
Requeued flit 9554
1
Received nack credit for flit 9876
Requeued flit 9876
8
1
Received nack credit for flit 9621
Requeued flit 9621
Received nack credit for flit 10088
Requeued flit 10088
5
7
Received nack credit for flit 10084
Requeued flit 10084
Received nack credit for flit 10022
Requeued flit 10022
6
Received nack credit for flit 10241
Requeued flit 10241
4
Received nack credit for flit 10624
Requeued flit 10624
7
Received nack credit for flit 10635
Requeued flit 10635
1
Received nack credit for flit 11227
Requeued flit 11227
6
4
1
7
Received nack credit for flit 11150
Requeued flit 11150
Received nack credit for flit 11305
Requeued flit 11305
Received nack credit for flit 11088
Requeued flit 11088
Received nack credit for flit 11518
Requeued flit 11518
1
Received nack credit for flit 11716
Requeued flit 11716
4
Received nack credit for flit 11585
Requeued flit 11585
4
Received nack credit for flit 12014
Requeued flit 12014
1
1
Received nack credit for flit 12486
Requeued flit 12486
6
Received nack credit for flit 12547
Requeued flit 12547
3
Received nack credit for flit 12380
Requeued flit 12380
Received nack credit for flit 12640
Requeued flit 12640
5
4
5
2
Received nack credit for flit 12779
Requeued flit 12779
2
Received nack credit for flit 12883
Requeued flit 12883
Received nack credit for flit 12810
Requeued flit 12810
Received nack credit for flit 13025
Requeued flit 13025
Received nack credit for flit 13095
Requeued flit 13095
2
7
Received nack credit for flit 13011
Requeued flit 13011
Received nack credit for flit 13311
Requeued flit 13311
7
Received nack credit for flit 13011
Requeued flit 13011
8
9
Received nack credit for flit 13176
Requeued flit 13176
Received nack credit for flit 13231
Requeued flit 13231
5
3
5
Received nack credit for flit 13686
Requeued flit 13686
4
Received nack credit for flit 13770
Requeued flit 13770
Received nack credit for flit 13902
Requeued flit 13902
Received nack credit for flit 13896
Requeued flit 13896
2
Received nack credit for flit 14226
Requeued flit 14226
1
7
Received nack credit for flit 14352
Requeued flit 14352
3
Received nack credit for flit 14049
Requeued flit 14049
Received nack credit for flit 14394
Requeued flit 14394
7
Received nack credit for flit 14369
Requeued flit 14369
4
Received nack credit for flit 14994
Requeued flit 14994
3
Received nack credit for flit 15213
Requeued flit 15213
5
Received nack credit for flit 15543
Requeued flit 15543
3
6
Received nack credit for flit 15722
Requeued flit 15722
Received nack credit for flit 15865
Requeued flit 15865
1
2
Received nack credit for flit 16386
Requeued flit 16386
Received nack credit for flit 16338
Requeued flit 16338
1
5
Received nack credit for flit 16546
Requeued flit 16546
Received nack credit for flit 16309
Requeued flit 16309
6
2
Received nack credit for flit 16644
Requeued flit 16644
Received nack credit for flit 16979
Requeued flit 16979
4
Received nack credit for flit 17411
Requeued flit 17411
7
Received nack credit for flit 17415
Requeued flit 17415
4
5
Received nack credit for flit 18440
Requeued flit 18440
Received nack credit for flit 18388
Requeued flit 18388
9
3
5
Received nack credit for flit 18346
Requeued flit 18346
Received nack credit for flit 18674
Requeued flit 18674
1
Received nack credit for flit 18576
Requeued flit 18576
Received nack credit for flit 18968
Requeued flit 18968
4
1
Received nack credit for flit 19109
Requeued flit 19109
2
Received nack credit for flit 19450
Requeued flit 19450
Received nack credit for flit 19488
Requeued flit 19488
2
Received nack credit for flit 19904
Requeued flit 19904
1
1
Received nack credit for flit 20473
Requeued flit 20473
Received nack credit for flit 20414
Requeued flit 20414
3
1
5
6
4
Received nack credit for flit 20606
Requeued flit 20606
2
Received nack credit for flit 20747
Requeued flit 20747
2
Received nack credit for flit 20495
Requeued flit 20495
Received nack credit for flit 20619
Requeued flit 20619
Received nack credit for flit 20808
Requeued flit 20808
Received nack credit for flit 20533
Requeued flit 20533
Received nack credit for flit 20834
Requeued flit 20834
1
Received nack credit for flit 21035
Requeued flit 21035
2
Received nack credit for flit 21178
Requeued flit 21178
8
1
Received nack credit for flit 20973
Requeued flit 20973
2
Received nack credit for flit 21415
Requeued flit 21415
Received nack credit for flit 21546
Requeued flit 21546
1
Received nack credit for flit 21920
Requeued flit 21920
2
2
Received nack credit for flit 22101
Requeued flit 22101
3
Received nack credit for flit 22230
Requeued flit 22230
Received nack credit for flit 22187
Requeued flit 22187
3
2
Received nack credit for flit 22532
Requeued flit 22532
Received nack credit for flit 22482
Requeued flit 22482
3
3
Received nack credit for flit 22593
Requeued flit 22593
Received nack credit for flit 22662
Requeued flit 22662
4
1
Received nack credit for flit 22878
Requeued flit 22878
3
Received nack credit for flit 22709
Requeued flit 22709
Received nack credit for flit 22898
Requeued flit 22898
1
4
Received nack credit for flit 23289
Requeued flit 23289
Received nack credit for flit 23217
Requeued flit 23217
1
Received nack credit for flit 23575
Requeued flit 23575
1
Received nack credit for flit 23706
Requeued flit 23706
1
4
Received nack credit for flit 24038
Requeued flit 24038
Received nack credit for flit 23995
Requeued flit 23995
5
Received nack credit for flit 24158
Requeued flit 24158
4
3
1
Received nack credit for flit 24293
Requeued flit 24293
Received nack credit for flit 24543
Requeued flit 24543
1
Received nack credit for flit 24410
Requeued flit 24410
Received nack credit for flit 24690
Requeued flit 24690
5
8
Received nack credit for flit 24533
Requeued flit 24533
Received nack credit for flit 24419
Requeued flit 24419
6
5
Received nack credit for flit 25056
Requeued flit 25056
3
3
Received nack credit for flit 25180
Requeued flit 25180
Received nack credit for flit 25391
Requeued flit 25391
Received nack credit for flit 25449
Requeued flit 25449
3
Received nack credit for flit 25813
Requeued flit 25813
3
Received nack credit for flit 26614
Requeued flit 26614
3
Received nack credit for flit 26942
Requeued flit 26942
5
Received nack credit for flit 27119
Requeued flit 27119
5
2
Received nack credit for flit 27358
Requeued flit 27358
4
1
Received nack credit for flit 27515
Requeued flit 27515
Received nack credit for flit 27620
Requeued flit 27620
3
Received nack credit for flit 27822
Requeued flit 27822
2
1
Received nack credit for flit 27787
Requeued flit 27787
Received nack credit for flit 27838
Requeued flit 27838
Received nack credit for flit 28026
Requeued flit 28026
2
4
Received nack credit for flit 28118
Requeued flit 28118
2
Received nack credit for flit 28168
Requeued flit 28168
Received nack credit for flit 28360
Requeued flit 28360
7
1
1
5
Received nack credit for flit 28329
Requeued flit 28329
Received nack credit for flit 28788
Requeued flit 28788
Received nack credit for flit 28570
Requeued flit 28570
3
Received nack credit for flit 28800
Requeued flit 28800
Received nack credit for flit 28836
Requeued flit 28836
1
Received nack credit for flit 29904
Requeued flit 29904
4
Received nack credit for flit 30072
Requeued flit 30072
3
Received nack credit for flit 30344
Requeued flit 30344
7
6
Received nack credit for flit 30204
Requeued flit 30204
4
Received nack credit for flit 30327
Requeued flit 30327
1
Received nack credit for flit 30560
Requeued flit 30560
Received nack credit for flit 30808
Requeued flit 30808
1
Received nack credit for flit 31976
Requeued flit 31976
6
5
Received nack credit for flit 31913
Requeued flit 31913
Received nack credit for flit 32065
Requeued flit 32065
1
2
Received nack credit for flit 32666
Requeued flit 32666
6
1
Received nack credit for flit 32693
Requeued flit 32693
1
Received nack credit for flit 32477
Requeued flit 32477
Received nack credit for flit 32885
Requeued flit 32885
Received nack credit for flit 32895
Requeued flit 32895
2
Received nack credit for flit 33113
Requeued flit 33113
2
Received nack credit for flit 33655
Requeued flit 33655
2
7
6
Received nack credit for flit 33903
Requeued flit 33903
Received nack credit for flit 33587
Requeued flit 33587
1
1
Received nack credit for flit 33829
Requeued flit 33829
Received nack credit for flit 34160
Requeued flit 34160
Received nack credit for flit 34215
Requeued flit 34215
3
Received nack credit for flit 34509
Requeued flit 34509
2
7
8
Received nack credit for flit 34727
Requeued flit 34727
Received nack credit for flit 34403
Requeued flit 34403
3
Received nack credit for flit 34409
Requeued flit 34409
6
4
Received nack credit for flit 34685
Requeued flit 34685
5
Received nack credit for flit 34864
Requeued flit 34864
Received nack credit for flit 34871
Requeued flit 34871
6
Received nack credit for flit 34816
Requeued flit 34816
5
Received nack credit for flit 34960
Requeued flit 34960
5
Received nack credit for flit 35167
Requeued flit 35167
1
Received nack credit for flit 35298
Requeued flit 35298
Received nack credit for flit 35633
Requeued flit 35633
14
Received nack credit for flit 35010
Requeued flit 35010
4
4
5
Received nack credit for flit 35968
Requeued flit 35968
1
Received nack credit for flit 35924
Requeued flit 35924
Received nack credit for flit 36250
Requeued flit 36250
Received nack credit for flit 35928
Requeued flit 35928
1
1
2
1
1
5
Received nack credit for flit 36815
Requeued flit 36815
Received nack credit for flit 36804
Requeued flit 36804
Received nack credit for flit 36901
Requeued flit 36901
Received nack credit for flit 36880
Requeued flit 36880
Received nack credit for flit 36711
Requeued flit 36711
Received nack credit for flit 36919
Requeued flit 36919
5
Received nack credit for flit 36923
Requeued flit 36923
3
7
2
Received nack credit for flit 37046
Requeued flit 37046
2
Received nack credit for flit 37440
Requeued flit 37440
Received nack credit for flit 37240
Requeued flit 37240
Received nack credit for flit 37585
Requeued flit 37585
1
7
Received nack credit for flit 37903
Requeued flit 37903
Received nack credit for flit 37610
Requeued flit 37610
1
Received nack credit for flit 38122
Requeued flit 38122
2
Received nack credit for flit 38163
Requeued flit 38163
6
Received nack credit for flit 38298
Requeued flit 38298
2
2
Received nack credit for flit 39004
Requeued flit 39004
Received nack credit for flit 39042
Requeued flit 39042
1
Received nack credit for flit 39311
Requeued flit 39311
8
2
Received nack credit for flit 39702
Requeued flit 39702
Received nack credit for flit 39363
Requeued flit 39363
2
2
Received nack credit for flit 40095
Requeued flit 40095
Received nack credit for flit 40132
Requeued flit 40132
13
Received nack credit for flit 40093
Requeued flit 40093
5
Received nack credit for flit 40686
Requeued flit 40686
1
3
Received nack credit for flit 41132
Requeued flit 41132
Received nack credit for flit 41236
Requeued flit 41236
6
4
Received nack credit for flit 41129
Requeued flit 41129
Received nack credit for flit 41340
Requeued flit 41340
6
10
3
Received nack credit for flit 41668
Requeued flit 41668
Received nack credit for flit 41429
Requeued flit 41429
Received nack credit for flit 41930
Requeued flit 41930
4
2
Received nack credit for flit 42193
Requeued flit 42193
Received nack credit for flit 42547
Requeued flit 42547
1
6
Received nack credit for flit 42723
Requeued flit 42723
Received nack credit for flit 42359
Requeued flit 42359
5
1
Received nack credit for flit 42718
Requeued flit 42718
Received nack credit for flit 42963
Requeued flit 42963
1
5
Received nack credit for flit 43113
Requeued flit 43113
Received nack credit for flit 43039
Requeued flit 43039
7
8
Received nack credit for flit 43143
Requeued flit 43143
Received nack credit for flit 43170
Requeued flit 43170
6
4
4
Received nack credit for flit 43472
Requeued flit 43472
Received nack credit for flit 43333
Requeued flit 43333
4
Received nack credit for flit 43633
Requeued flit 43633
Received nack credit for flit 43674
Requeued flit 43674
1
1
Received nack credit for flit 44159
Requeued flit 44159
8
1
Received nack credit for flit 44108
Requeued flit 44108
Received nack credit for flit 43922
Requeued flit 43922
2
Received nack credit for flit 44362
Requeued flit 44362
Received nack credit for flit 44442
Requeued flit 44442
3
Received nack credit for flit 44609
Requeued flit 44609
1
7
Received nack credit for flit 44957
Requeued flit 44957
1
Received nack credit for flit 44666
Requeued flit 44666
Received nack credit for flit 45116
Requeued flit 45116
2
2
1
2
1
Received nack credit for flit 45910
Requeued flit 45910
Received nack credit for flit 45987
Requeued flit 45987
Received nack credit for flit 46073
Requeued flit 46073
Received nack credit for flit 46000
Requeued flit 46000
2
Received nack credit for flit 46404
Requeued flit 46404
2
Received nack credit for flit 46917
Requeued flit 46917
4
2
1
Received nack credit for flit 47014
Requeued flit 47014
Received nack credit for flit 47287
Requeued flit 47287
Received nack credit for flit 47233
Requeued flit 47233
6
1
Received nack credit for flit 47247
Requeued flit 47247
Received nack credit for flit 47514
Requeued flit 47514
1
Received nack credit for flit 47624
Requeued flit 47624
2
9
Received nack credit for flit 47797
Requeued flit 47797
Received nack credit for flit 47447
Requeued flit 47447
6
Received nack credit for flit 47926
Requeued flit 47926
4
7
6
Received nack credit for flit 48192
Requeued flit 48192
Received nack credit for flit 48216
Requeued flit 48216
Received nack credit for flit 48063
Requeued flit 48063
6
2
Received nack credit for flit 48573
Requeued flit 48573
Received nack credit for flit 48891
Requeued flit 48891
3
Received nack credit for flit 49057
Requeued flit 49057
3
7
9
1
Received nack credit for flit 49046
Requeued flit 49046
Received nack credit for flit 48940
Requeued flit 48940
3
Received nack credit for flit 49251
Requeued flit 49251
Received nack credit for flit 49417
Requeued flit 49417
Received nack credit for flit 49423
Requeued flit 49423
7
Received nack credit for flit 49858
Requeued flit 49858
4
1
Received nack credit for flit 50269
Requeued flit 50269
5
Received nack credit for flit 50543
Requeued flit 50543
Received nack credit for flit 50380
Requeued flit 50380
6
3
8
Received nack credit for flit 50440
Requeued flit 50440
Received nack credit for flit 50194
Requeued flit 50194
Received nack credit for flit 50640
Requeued flit 50640
2
Received nack credit for flit 50900
Requeued flit 50900
1
4
Received nack credit for flit 51111
Requeued flit 51111
Received nack credit for flit 50959
Requeued flit 50959
1
1
Received nack credit for flit 51325
Requeued flit 51325
Received nack credit for flit 51306
Requeued flit 51306
2
Received nack credit for flit 51658
Requeued flit 51658
1
Received nack credit for flit 51931
Requeued flit 51931
1
1
Received nack credit for flit 52156
Requeued flit 52156
Received nack credit for flit 52248
Requeued flit 52248
2
Received nack credit for flit 52451
Requeued flit 52451
1
5
Received nack credit for flit 52698
Requeued flit 52698
Received nack credit for flit 52501
Requeued flit 52501
1
2
Received nack credit for flit 53014
Requeued flit 53014
3
5
Received nack credit for flit 53022
Requeued flit 53022
Received nack credit for flit 52915
Requeued flit 52915
3
Received nack credit for flit 53042
Requeued flit 53042
Received nack credit for flit 53214
Requeued flit 53214
4
1
1
Received nack credit for flit 53511
Requeued flit 53511
4
2
Received nack credit for flit 53590
Requeued flit 53590
Received nack credit for flit 53319
Requeued flit 53319
Received nack credit for flit 53616
Requeued flit 53616
1
Received nack credit for flit 53775
Requeued flit 53775
1
1
1
Received nack credit for flit 54051
Requeued flit 54051
Received nack credit for flit 54034
Requeued flit 54034
Received nack credit for flit 54130
Requeued flit 54130
2
1
Received nack credit for flit 54601
Requeued flit 54601
Received nack credit for flit 54639
Requeued flit 54639
1
Received nack credit for flit 54781
Requeued flit 54781
3
3
Received nack credit for flit 54873
Requeued flit 54873
Received nack credit for flit 54976
Requeued flit 54976
4
Received nack credit for flit 55374
Requeued flit 55374
1
Received nack credit for flit 55737
Requeued flit 55737
2
Received nack credit for flit 56203
Requeued flit 56203
2
Received nack credit for flit 56464
Requeued flit 56464
1
Received nack credit for flit 56720
Requeued flit 56720
2
Received nack credit for flit 57420
Requeued flit 57420
3
1
1
Received nack credit for flit 57505
Requeued flit 57505
Received nack credit for flit 57741
Requeued flit 57741
Received nack credit for flit 57748
Requeued flit 57748
2
6
7
1
Received nack credit for flit 58040
Requeued flit 58040
Received nack credit for flit 57834
Requeued flit 57834
Received nack credit for flit 57790
Requeued flit 57790
Received nack credit for flit 58203
Requeued flit 58203
4
1
Received nack credit for flit 58178
Requeued flit 58178
3
Received nack credit for flit 58387
Requeued flit 58387
Received nack credit for flit 58356
Requeued flit 58356
8
3
Received nack credit for flit 58575
Requeued flit 58575
1
Received nack credit for flit 58909
Requeued flit 58909
Received nack credit for flit 59157
Requeued flit 59157
2
4
1
Received nack credit for flit 59232
Requeued flit 59232
Received nack credit for flit 59195
Requeued flit 59195
Received nack credit for flit 59421
Requeued flit 59421
2
5
Received nack credit for flit 59583
Requeued flit 59583
Received nack credit for flit 59444
Requeued flit 59444
5
3
1
Received nack credit for flit 59984
Requeued flit 59984
Received nack credit for flit 59751
Requeued flit 59751
2
Received nack credit for flit 60112
Requeued flit 60112
Received nack credit for flit 60174
Requeued flit 60174
1
5
Received nack credit for flit 60470
Requeued flit 60470
Received nack credit for flit 60374
Requeued flit 60374
1
1
10
1
Received nack credit for flit 60811
Requeued flit 60811
Received nack credit for flit 60815
Requeued flit 60815
4
Received nack credit for flit 60872
Requeued flit 60872
6
Received nack credit for flit 60252
Requeued flit 60252
Received nack credit for flit 60804
Requeued flit 60804
1
Received nack credit for flit 61106
Requeued flit 61106
2
Received nack credit for flit 60668
Requeued flit 60668
Received nack credit for flit 61209
Requeued flit 61209
2
Received nack credit for flit 61294
Requeued flit 61294
1
Received nack credit for flit 61580
Requeued flit 61580
7
3
Received nack credit for flit 61345
Requeued flit 61345
5
Received nack credit for flit 61705
Requeued flit 61705
Received nack credit for flit 61690
Requeued flit 61690
4
Received nack credit for flit 62041
Requeued flit 62041
4
Received nack credit for flit 62395
Requeued flit 62395
4
Received nack credit for flit 62558
Requeued flit 62558
1
1
Received nack credit for flit 63131
Requeued flit 63131
6
6
1
Received nack credit for flit 63272
Requeued flit 63272
Received nack credit for flit 63334
Requeued flit 63334
6
Received nack credit for flit 63040
Requeued flit 63040
Received nack credit for flit 63068
Requeued flit 63068
7
1
Received nack credit for flit 63343
Requeued flit 63343
4
Received nack credit for flit 63786
Requeued flit 63786
4
Received nack credit for flit 63620
Requeued flit 63620
Received nack credit for flit 63733
Requeued flit 63733
1
2
Received nack credit for flit 64268
Requeued flit 64268
Received nack credit for flit 64371
Requeued flit 64371
1
8
Received nack credit for flit 64643
Requeued flit 64643
Received nack credit for flit 64184
Requeued flit 64184
3
6
Received nack credit for flit 64958
Requeued flit 64958
Received nack credit for flit 64795
Requeued flit 64795
1
1
Received nack credit for flit 65289
Requeued flit 65289
3
5
1
Received nack credit for flit 65388
Requeued flit 65388
1
Received nack credit for flit 65336
Requeued flit 65336
Received nack credit for flit 65472
Requeued flit 65472
Received nack credit for flit 65220
Requeued flit 65220
Received nack credit for flit 65552
Requeued flit 65552
9
Received nack credit for flit 65381
Requeued flit 65381
2
Received nack credit for flit 65979
Requeued flit 65979
1
Received nack credit for flit 66345
Requeued flit 66345
1
5
Received nack credit for flit 66494
Requeued flit 66494
1
Received nack credit for flit 66341
Requeued flit 66341
2
Received nack credit for flit 66726
Requeued flit 66726
Received nack credit for flit 66712
Requeued flit 66712
7
5
Received nack credit for flit 67102
Requeued flit 67102
4
6
Received nack credit for flit 67276
Requeued flit 67276
7
1
Received nack credit for flit 66925
Requeued flit 66925
Received nack credit for flit 67227
Requeued flit 67227
Received nack credit for flit 67198
Requeued flit 67198
Received nack credit for flit 67602
Requeued flit 67602
1
Received nack credit for flit 67832
Requeued flit 67832
5
1
Received nack credit for flit 67740
Requeued flit 67740
1
7
Received nack credit for flit 68061
Requeued flit 68061
Received nack credit for flit 68159
Requeued flit 68159
Received nack credit for flit 67808
Requeued flit 67808
3
1
Received nack credit for flit 68440
Requeued flit 68440
Received nack credit for flit 68317
Requeued flit 68317
3
1
Received nack credit for flit 68486
Requeued flit 68486
Received nack credit for flit 68742
Requeued flit 68742
1
Received nack credit for flit 68941
Requeued flit 68941
6
Received nack credit for flit 68940
Requeued flit 68940
1
6
5
Received nack credit for flit 69396
Requeued flit 69396
Received nack credit for flit 69099
Requeued flit 69099
1
1
Received nack credit for flit 69282
Requeued flit 69282
Received nack credit for flit 69599
Requeued flit 69599
Received nack credit for flit 69662
Requeued flit 69662
3
3
Received nack credit for flit 69757
Requeued flit 69757
Received nack credit for flit 69837
Requeued flit 69837
1
11
Received nack credit for flit 70128
Requeued flit 70128
6
Received nack credit for flit 69475
Requeued flit 69475
Received nack credit for flit 69921
Requeued flit 69921
1
Received nack credit for flit 70727
Requeued flit 70727
2
Received nack credit for flit 70793
Requeued flit 70793
7
Received nack credit for flit 70560
Requeued flit 70560
6
7
2
Received nack credit for flit 70918
Requeued flit 70918
Received nack credit for flit 70838
Requeued flit 70838
Received nack credit for flit 71303
Requeued flit 71303
3
3
Received nack credit for flit 71692
Requeued flit 71692
Received nack credit for flit 71804
Requeued flit 71804
2
Received nack credit for flit 72078
Requeued flit 72078
1
Received nack credit for flit 72513
Requeued flit 72513
6
Received nack credit for flit 72570
Requeued flit 72570
1
Received nack credit for flit 73219
Requeued flit 73219
2
Received nack credit for flit 73421
Requeued flit 73421
3
Received nack credit for flit 73634
Requeued flit 73634
3
1
1
1
Received nack credit for flit 73718
Requeued flit 73718
Received nack credit for flit 73933
Requeued flit 73933
Received nack credit for flit 74020
Requeued flit 74020
Received nack credit for flit 74009
Requeued flit 74009
1
6
Received nack credit for flit 74026
Requeued flit 74026
1
Received nack credit for flit 74310
Requeued flit 74310
Received nack credit for flit 74471
Requeued flit 74471
3
3
Received nack credit for flit 74590
Requeued flit 74590
Received nack credit for flit 74562
Requeued flit 74562
9
1
8
Received nack credit for flit 74403
Requeued flit 74403
Received nack credit for flit 74457
Requeued flit 74457
2
Received nack credit for flit 74926
Requeued flit 74926
Received nack credit for flit 75081
Requeued flit 75081
4
Received nack credit for flit 75089
Requeued flit 75089
2
1
1
Received nack credit for flit 75332
Requeued flit 75332
Received nack credit for flit 75439
Requeued flit 75439
Received nack credit for flit 75510
Requeued flit 75510
4
5
Received nack credit for flit 75514
Requeued flit 75514
1
Received nack credit for flit 75845
Requeued flit 75845
Received nack credit for flit 75538
Requeued flit 75538
4
3
1
Received nack credit for flit 75945
Requeued flit 75945
Received nack credit for flit 75943
Requeued flit 75943
Received nack credit for flit 76164
Requeued flit 76164
3
1
Received nack credit for flit 76550
Requeued flit 76550
Received nack credit for flit 76761
Requeued flit 76761
7
Received nack credit for flit 76760
Requeued flit 76760
3
Received nack credit for flit 77344
Requeued flit 77344
6
4
Received nack credit for flit 77334
Requeued flit 77334
Received nack credit for flit 77592
Requeued flit 77592
2
2
Received nack credit for flit 77850
Requeued flit 77850
Received nack credit for flit 77829
Requeued flit 77829
6
11
2
Received nack credit for flit 77853
Requeued flit 77853
Received nack credit for flit 78190
Requeued flit 78190
Received nack credit for flit 77601
Requeued flit 77601
5
Received nack credit for flit 78306
Requeued flit 78306
4
7
1
Received nack credit for flit 78378
Requeued flit 78378
1
5
Received nack credit for flit 78916
Requeued flit 78916
Received nack credit for flit 78877
Requeued flit 78877
Received nack credit for flit 78718
Requeued flit 78718
Received nack credit for flit 78612
Requeued flit 78612
2
7
10
Received nack credit for flit 79056
Requeued flit 79056
Received nack credit for flit 78757
Requeued flit 78757
Received nack credit for flit 78686
Requeued flit 78686
9
Received nack credit for flit 78814
Requeued flit 78814
5
2
1
Received nack credit for flit 79381
Requeued flit 79381
2
Received nack credit for flit 79207
Requeued flit 79207
Received nack credit for flit 79485
Requeued flit 79485
Received nack credit for flit 79523
Requeued flit 79523
4
Received nack credit for flit 79549
Requeued flit 79549
1
Received nack credit for flit 80265
Requeued flit 80265
1
1
Received nack credit for flit 80384
Requeued flit 80384
Received nack credit for flit 80431
Requeued flit 80431
4
7
Received nack credit for flit 80551
Requeued flit 80551
Received nack credit for flit 80392
Requeued flit 80392
1
Received nack credit for flit 80932
Requeued flit 80932
1
Received nack credit for flit 81372
Requeued flit 81372
3
4
4
Received nack credit for flit 81463
Requeued flit 81463
Received nack credit for flit 81504
Requeued flit 81504
1
5
3
Received nack credit for flit 81550
Requeued flit 81550
Received nack credit for flit 81787
Requeued flit 81787
Received nack credit for flit 81684
Requeued flit 81684
Received nack credit for flit 81544
Requeued flit 81544
1
7
5
Received nack credit for flit 81920
Requeued flit 81920
Received nack credit for flit 81620
Requeued flit 81620
Received nack credit for flit 81775
Requeued flit 81775
4
Received nack credit for flit 82244
Requeued flit 82244
3
5
2
Received nack credit for flit 82571
Requeued flit 82571
Received nack credit for flit 82474
Requeued flit 82474
Received nack credit for flit 82706
Requeued flit 82706
5
Received nack credit for flit 82719
Requeued flit 82719
5
1
Received nack credit for flit 82939
Requeued flit 82939
Received nack credit for flit 83279
Requeued flit 83279
4
3
Received nack credit for flit 84151
Requeued flit 84151
3
Received nack credit for flit 84268
Requeued flit 84268
Received nack credit for flit 84346
Requeued flit 84346
5
2
6
Received nack credit for flit 84409
Requeued flit 84409
3
Received nack credit for flit 84325
Requeued flit 84325
Received nack credit for flit 84704
Requeued flit 84704
Received nack credit for flit 84592
Requeued flit 84592
10
Received nack credit for flit 84476
Requeued flit 84476
1
3
3
Received nack credit for flit 85364
Requeued flit 85364
Received nack credit for flit 85261
Requeued flit 85261
5
Received nack credit for flit 85303
Requeued flit 85303
3
Received nack credit for flit 85234
Requeued flit 85234
Received nack credit for flit 85434
Requeued flit 85434
1
2
Received nack credit for flit 85753
Requeued flit 85753
Received nack credit for flit 85754
Requeued flit 85754
9
9
Received nack credit for flit 85474
Requeued flit 85474
Received nack credit for flit 85409
Requeued flit 85409
5
Received nack credit for flit 85974
Requeued flit 85974
2
1
1
Received nack credit for flit 86324
Requeued flit 86324
Received nack credit for flit 86465
Requeued flit 86465
Received nack credit for flit 86474
Requeued flit 86474
1
Received nack credit for flit 86634
Requeued flit 86634
5
1
Received nack credit for flit 86586
Requeued flit 86586
Received nack credit for flit 86932
Requeued flit 86932
1
Received nack credit for flit 87299
Requeued flit 87299
5
2
Received nack credit for flit 87254
Requeued flit 87254
4
Received nack credit for flit 87471
Requeued flit 87471
Received nack credit for flit 87439
Requeued flit 87439
6
6
Received nack credit for flit 87457
Requeued flit 87457
Received nack credit for flit 87494
Requeued flit 87494
1
Received nack credit for flit 87920
Requeued flit 87920
4
6
5
Received nack credit for flit 87996
Requeued flit 87996
1
Received nack credit for flit 87955
Requeued flit 87955
Received nack credit for flit 88084
Requeued flit 88084
Received nack credit for flit 88352
Requeued flit 88352
1
Received nack credit for flit 88508
Requeued flit 88508
8
Received nack credit for flit 88258
Requeued flit 88258
1
8
Received nack credit for flit 88929
Requeued flit 88929
Received nack credit for flit 88487
Requeued flit 88487
1
Received nack credit for flit 89233
Requeued flit 89233
4
Received nack credit for flit 89478
Requeued flit 89478
1
Received nack credit for flit 90344
Requeued flit 90344
4
Received nack credit for flit 90300
Requeued flit 90300
2
2
Received nack credit for flit 90662
Requeued flit 90662
5
Received nack credit for flit 90688
Requeued flit 90688
3
Received nack credit for flit 90605
Requeued flit 90605
1
Received nack credit for flit 90771
Requeued flit 90771
6
Received nack credit for flit 90976
Requeued flit 90976
5
Received nack credit for flit 90831
Requeued flit 90831
Received nack credit for flit 90795
Requeued flit 90795
1
Received nack credit for flit 91296
Requeued flit 91296
8
7
Received nack credit for flit 91235
Requeued flit 91235
7
1
Received nack credit for flit 91392
Requeued flit 91392
Received nack credit for flit 91558
Requeued flit 91558
Received nack credit for flit 91931
Requeued flit 91931
1
3
1
Received nack credit for flit 92052
Requeued flit 92052
6
Received nack credit for flit 91988
Requeued flit 91988
Received nack credit for flit 92146
Requeued flit 92146
1
Received nack credit for flit 91897
Requeued flit 91897
Received nack credit for flit 92290
Requeued flit 92290
5
Received nack credit for flit 92427
Requeued flit 92427
5
Received nack credit for flit 92664
Requeued flit 92664
1
Received nack credit for flit 93220
Requeued flit 93220
5
4
Received nack credit for flit 93401
Requeued flit 93401
Received nack credit for flit 93263
Requeued flit 93263
8
Received nack credit for flit 93311
Requeued flit 93311
7
10
1
Received nack credit for flit 93670
Requeued flit 93670
3
Received nack credit for flit 94071
Requeued flit 94071
Received nack credit for flit 93443
Requeued flit 93443
1
Received nack credit for flit 94015
Requeued flit 94015
4
5
Received nack credit for flit 94213
Requeued flit 94213
5
Received nack credit for flit 94143
Requeued flit 94143
Received nack credit for flit 94134
Requeued flit 94134
Received nack credit for flit 94211
Requeued flit 94211
3
Received nack credit for flit 94751
Requeued flit 94751
6
Received nack credit for flit 95022
Requeued flit 95022
2
8
1
5
Received nack credit for flit 95401
Requeued flit 95401
Received nack credit for flit 94998
Requeued flit 94998
Received nack credit for flit 95512
Requeued flit 95512
Received nack credit for flit 95295
Requeued flit 95295
2
3
Received nack credit for flit 95874
Requeued flit 95874
1
Received nack credit for flit 95846
Requeued flit 95846
Received nack credit for flit 96093
Requeued flit 96093
2
3
4
4
Received nack credit for flit 96300
Requeued flit 96300
Received nack credit for flit 96246
Requeued flit 96246
3
Received nack credit for flit 96208
Requeued flit 96208
Received nack credit for flit 96375
Requeued flit 96375
Received nack credit for flit 96257
Requeued flit 96257
5
1
Received nack credit for flit 96553
Requeued flit 96553
Received nack credit for flit 96828
Requeued flit 96828
4
1
Received nack credit for flit 96776
Requeued flit 96776
Received nack credit for flit 97014
Requeued flit 97014
1
Received nack credit for flit 97184
Requeued flit 97184
5
5
Received nack credit for flit 97087
Requeued flit 97087
8
Received nack credit for flit 97209
Requeued flit 97209
Received nack credit for flit 97089
Requeued flit 97089
5
4
1
Received nack credit for flit 98168
Requeued flit 98168
Received nack credit for flit 98392
Requeued flit 98392
2
Received nack credit for flit 98057
Requeued flit 98057
Received nack credit for flit 98457
Requeued flit 98457
6
1
Received nack credit for flit 98455
Requeued flit 98455
1
1
Received nack credit for flit 98867
Requeued flit 98867
2
Received nack credit for flit 98933
Requeued flit 98933
Received nack credit for flit 98887
Requeued flit 98887
1
Received nack credit for flit 98974
Requeued flit 98974
3
Received nack credit for flit 99216
Requeued flit 99216
1
1
1
Received nack credit for flit 99181
Requeued flit 99181
Received nack credit for flit 99332
Requeued flit 99332
1
Received nack credit for flit 99329
Requeued flit 99329
8
Received nack credit for flit 99418
Requeued flit 99418
1
Received nack credit for flit 99075
Requeued flit 99075
Received nack credit for flit 99535
Requeued flit 99535
8
2
Received nack credit for flit 99250
Requeued flit 99250
Received nack credit for flit 99644
Requeued flit 99644
5
5
5
Received nack credit for flit 99656
Requeued flit 99656
Received nack credit for flit 99596
Requeued flit 99596
4
Received nack credit for flit 99984
Requeued flit 99984
3
Received nack credit for flit 100436
Requeued flit 100436
1
Received nack credit for flit 100671
Requeued flit 100671
3
Received nack credit for flit 100656
Requeued flit 100656
7
Received nack credit for flit 100951
Requeued flit 100951
3
8
1
Received nack credit for flit 101567
Requeued flit 101567
1
Received nack credit for flit 101250
Requeued flit 101250
Received nack credit for flit 101787
Requeued flit 101787
Received nack credit for flit 101865
Requeued flit 101865
1
5
Received nack credit for flit 102320
Requeued flit 102320
Received nack credit for flit 102092
Requeued flit 102092
8
1
1
Received nack credit for flit 102181
Requeued flit 102181
Received nack credit for flit 102757
Requeued flit 102757
2
Received nack credit for flit 102770
Requeued flit 102770
5
Received nack credit for flit 102848
Requeued flit 102848
Received nack credit for flit 102751
Requeued flit 102751
1
Received nack credit for flit 103085
Requeued flit 103085
7
3
Received nack credit for flit 102900
Requeued flit 102900
1
Received nack credit for flit 103162
Requeued flit 103162
9
Received nack credit for flit 103379
Requeued flit 103379
Received nack credit for flit 103034
Requeued flit 103034
2
Received nack credit for flit 103568
Requeued flit 103568
1
4
Received nack credit for flit 103970
Requeued flit 103970
Received nack credit for flit 103792
Requeued flit 103792
3
1
11
Received nack credit for flit 104166
Requeued flit 104166
Received nack credit for flit 103655
Requeued flit 103655
2
1
Received nack credit for flit 104460
Requeued flit 104460
Received nack credit for flit 104331
Requeued flit 104331
Received nack credit for flit 104660
Requeued flit 104660
4
3
Received nack credit for flit 104852
Requeued flit 104852
Received nack credit for flit 104918
Requeued flit 104918
6
Received nack credit for flit 104972
Requeued flit 104972
1
Received nack credit for flit 105730
Requeued flit 105730
4
4
Received nack credit for flit 105685
Requeued flit 105685
Received nack credit for flit 105707
Requeued flit 105707
1
3
Received nack credit for flit 106207
Requeued flit 106207
1
Received nack credit for flit 106279
Requeued flit 106279
Received nack credit for flit 106132
Requeued flit 106132
1
1
Received nack credit for flit 106538
Requeued flit 106538
Received nack credit for flit 106555
Requeued flit 106555
1
Received nack credit for flit 106715
Requeued flit 106715
1
1
Received nack credit for flit 107001
Requeued flit 107001
5
Received nack credit for flit 106879
Requeued flit 106879
Received nack credit for flit 107087
Requeued flit 107087
1
1
Received nack credit for flit 107333
Requeued flit 107333
Received nack credit for flit 107295
Requeued flit 107295
1
Received nack credit for flit 107437
Requeued flit 107437
1
2
Received nack credit for flit 107560
Requeued flit 107560
Received nack credit for flit 107555
Requeued flit 107555
3
Received nack credit for flit 107619
Requeued flit 107619
3
Received nack credit for flit 107787
Requeued flit 107787
2
1
9
Received nack credit for flit 107958
Requeued flit 107958
7
6
Received nack credit for flit 108111
Requeued flit 108111
Received nack credit for flit 107577
Requeued flit 107577
Received nack credit for flit 107884
Requeued flit 107884
Received nack credit for flit 107834
Requeued flit 107834
1
Received nack credit for flit 108548
Requeued flit 108548
1
Received nack credit for flit 108787
Requeued flit 108787
1
Received nack credit for flit 109085
Requeued flit 109085
4
7
Received nack credit for flit 109075
Requeued flit 109075
Received nack credit for flit 109027
Requeued flit 109027
6
10
Received nack credit for flit 109494
Requeued flit 109494
Received nack credit for flit 109275
Requeued flit 109275
1
Received nack credit for flit 109931
Requeued flit 109931
3
1
Received nack credit for flit 110149
Requeued flit 110149
1
Received nack credit for flit 109988
Requeued flit 109988
5
Received nack credit for flit 110244
Requeued flit 110244
5
1
Received nack credit for flit 110037
Requeued flit 110037
Received nack credit for flit 110418
Requeued flit 110418
1
Received nack credit for flit 110152
Requeued flit 110152
Received nack credit for flit 110533
Requeued flit 110533
1
1
1
Received nack credit for flit 110805
Requeued flit 110805
Received nack credit for flit 110848
Requeued flit 110848
Received nack credit for flit 110839
Requeued flit 110839
7
3
Received nack credit for flit 110671
Requeued flit 110671
1
Received nack credit for flit 111041
Requeued flit 111041
4
Received nack credit for flit 111199
Requeued flit 111199
Received nack credit for flit 111099
Requeued flit 111099
4
Received nack credit for flit 111640
Requeued flit 111640
8
1
Received nack credit for flit 111661
Requeued flit 111661
Received nack credit for flit 112096
Requeued flit 112096
5
Received nack credit for flit 112060
Requeued flit 112060
4
3
Received nack credit for flit 112571
Requeued flit 112571
Received nack credit for flit 112652
Requeued flit 112652
1
Received nack credit for flit 113273
Requeued flit 113273
1
2
Received nack credit for flit 113492
Requeued flit 113492
Received nack credit for flit 113586
Requeued flit 113586
5
Received nack credit for flit 113895
Requeued flit 113895
4
Received nack credit for flit 114158
Requeued flit 114158
1
Received nack credit for flit 114491
Requeued flit 114491
1
3
1
Received nack credit for flit 114842
Requeued flit 114842
1
Received nack credit for flit 114969
Requeued flit 114969
Received nack credit for flit 114826
Requeued flit 114826
Received nack credit for flit 115037
Requeued flit 115037
5
Received nack credit for flit 115157
Requeued flit 115157
1
8
Received nack credit for flit 115585
Requeued flit 115585
1
Received nack credit for flit 115204
Requeued flit 115204
Received nack credit for flit 115734
Requeued flit 115734
2
Received nack credit for flit 115798
Requeued flit 115798
7
Received nack credit for flit 115707
Requeued flit 115707
3
4
4
3
Received nack credit for flit 116180
Requeued flit 116180
Received nack credit for flit 116222
Requeued flit 116222
1
Received nack credit for flit 116128
Requeued flit 116128
Received nack credit for flit 116462
Requeued flit 116462
2
7
Received nack credit for flit 116568
Requeued flit 116568
1
Received nack credit for flit 116316
Requeued flit 116316
Received nack credit for flit 116833
Requeued flit 116833
4
Received nack credit for flit 116988
Requeued flit 116988
2
Received nack credit for flit 117574
Requeued flit 117574
6
6
Received nack credit for flit 117673
Requeued flit 117673
Received nack credit for flit 117725
Requeued flit 117725
3
6
Received nack credit for flit 118110
Requeued flit 118110
3
Received nack credit for flit 118227
Requeued flit 118227
1
6
4
Received nack credit for flit 117946
Requeued flit 117946
5
2
Received nack credit for flit 118496
Requeued flit 118496
Received nack credit for flit 118159
Requeued flit 118159
Received nack credit for flit 118334
Requeued flit 118334
Received nack credit for flit 118363
Requeued flit 118363
Received nack credit for flit 118467
Requeued flit 118467
3
9
Received nack credit for flit 118738
Requeued flit 118738
Received nack credit for flit 118361
Requeued flit 118361
3
2
Received nack credit for flit 119108
Requeued flit 119108
Received nack credit for flit 119149
Requeued flit 119149
6
7
Received nack credit for flit 119007
Requeued flit 119007
1
1
Received nack credit for flit 119044
Requeued flit 119044
Received nack credit for flit 119495
Requeued flit 119495
Received nack credit for flit 119461
Requeued flit 119461
2
Received nack credit for flit 119586
Requeued flit 119586
1
3
1
Received nack credit for flit 119801
Requeued flit 119801
Received nack credit for flit 119672
Requeued flit 119672
Received nack credit for flit 119839
Requeued flit 119839
3
Received nack credit for flit 120106
Requeued flit 120106
2
Received nack credit for flit 120455
Requeued flit 120455
5
Received nack credit for flit 120474
Requeued flit 120474
2
Received nack credit for flit 120946
Requeued flit 120946
3
Received nack credit for flit 121168
Requeued flit 121168
3
1
Received nack credit for flit 121285
Requeued flit 121285
5
Received nack credit for flit 121460
Requeued flit 121460
Received nack credit for flit 121269
Requeued flit 121269
4
3
Received nack credit for flit 121596
Requeued flit 121596
Received nack credit for flit 121668
Requeued flit 121668
2
Received nack credit for flit 121977
Requeued flit 121977
2
Received nack credit for flit 122452
Requeued flit 122452
2
5
Received nack credit for flit 122811
Requeued flit 122811
Received nack credit for flit 122620
Requeued flit 122620
1
Received nack credit for flit 123131
Requeued flit 123131
1
4
Received nack credit for flit 123517
Requeued flit 123517
1
Received nack credit for flit 123345
Requeued flit 123345
Received nack credit for flit 123602
Requeued flit 123602
2
Received nack credit for flit 123822
Requeued flit 123822
1
1
Received nack credit for flit 124214
Requeued flit 124214
Received nack credit for flit 124292
Requeued flit 124292
1
2
Received nack credit for flit 124482
Requeued flit 124482
Received nack credit for flit 124486
Requeued flit 124486
4
6
1
Received nack credit for flit 125167
Requeued flit 125167
Received nack credit for flit 125164
Requeued flit 125164
Received nack credit for flit 125478
Requeued flit 125478
6
Received nack credit for flit 125494
Requeued flit 125494
2
Received nack credit for flit 125827
Requeued flit 125827
1
3
3
Received nack credit for flit 126058
Requeued flit 126058
Received nack credit for flit 126168
Requeued flit 126168
Received nack credit for flit 126077
Requeued flit 126077
1
12
Received nack credit for flit 126087
Requeued flit 126087
Received nack credit for flit 126691
Requeued flit 126691
4
2
Received nack credit for flit 126755
Requeued flit 126755
5
Received nack credit for flit 126926
Requeued flit 126926
1
4
Received nack credit for flit 127151
Requeued flit 127151
2
Received nack credit for flit 126783
Requeued flit 126783
Received nack credit for flit 127024
Requeued flit 127024
Received nack credit for flit 127218
Requeued flit 127218
1
Received nack credit for flit 127420
Requeued flit 127420
6
8
Received nack credit for flit 127267
Requeued flit 127267
Received nack credit for flit 127127
Requeued flit 127127
3
9
Received nack credit for flit 127662
Requeued flit 127662
3
5
Received nack credit for flit 127328
Requeued flit 127328
Received nack credit for flit 127851
Requeued flit 127851
Received nack credit for flit 127709
Requeued flit 127709
1
1
Received nack credit for flit 128221
Requeued flit 128221
1
Received nack credit for flit 128324
Requeued flit 128324
Received nack credit for flit 128396
Requeued flit 128396
2
Received nack credit for flit 128525
Requeued flit 128525
1
2
Received nack credit for flit 128764
Requeued flit 128764
Received nack credit for flit 128815
Requeued flit 128815
5
1
1
Received nack credit for flit 128854
Requeued flit 128854
Received nack credit for flit 129161
Requeued flit 129161
Received nack credit for flit 129145
Requeued flit 129145
3
1
Received nack credit for flit 129168
Requeued flit 129168
Received nack credit for flit 129425
Requeued flit 129425
1
Received nack credit for flit 129993
Requeued flit 129993
3
Received nack credit for flit 129985
Requeued flit 129985
6
4
Received nack credit for flit 129918
Requeued flit 129918
Received nack credit for flit 130082
Requeued flit 130082
1
Received nack credit for flit 130383
Requeued flit 130383
3
2
Received nack credit for flit 130599
Requeued flit 130599
Received nack credit for flit 130707
Requeued flit 130707
6
1
Received nack credit for flit 130736
Requeued flit 130736
2
9
Received nack credit for flit 131094
Requeued flit 131094
Received nack credit for flit 131154
Requeued flit 131154
Received nack credit for flit 130755
Requeued flit 130755
3
2
2
Received nack credit for flit 131263
Requeued flit 131263
Received nack credit for flit 131370
Requeued flit 131370
Received nack credit for flit 131451
Requeued flit 131451
1
1
Received nack credit for flit 131855
Requeued flit 131855
1
Received nack credit for flit 131913
Requeued flit 131913
3
Received nack credit for flit 132015
Requeued flit 132015
Received nack credit for flit 131940
Requeued flit 131940
11
Received nack credit for flit 131755
Requeued flit 131755
1
Received nack credit for flit 132794
Requeued flit 132794
3
8
Received nack credit for flit 132883
Requeued flit 132883
2
5
6
Received nack credit for flit 133024
Requeued flit 133024
Received nack credit for flit 132686
Requeued flit 132686
Received nack credit for flit 132902
Requeued flit 132902
1
3
Received nack credit for flit 132884
Requeued flit 132884
Received nack credit for flit 133189
Requeued flit 133189
Received nack credit for flit 133298
Requeued flit 133298
5
Received nack credit for flit 133213
Requeued flit 133213
1
6
5
Received nack credit for flit 133881
Requeued flit 133881
Received nack credit for flit 133582
Requeued flit 133582
3
Received nack credit for flit 133715
Requeued flit 133715
Received nack credit for flit 133892
Requeued flit 133892
3
Received nack credit for flit 134195
Requeued flit 134195
5
8
Received nack credit for flit 134288
Requeued flit 134288
1
Received nack credit for flit 134666
Requeued flit 134666
Received nack credit for flit 134209
Requeued flit 134209
6
Received nack credit for flit 134583
Requeued flit 134583
1
1
Received nack credit for flit 135097
Requeued flit 135097
Received nack credit for flit 135117
Requeued flit 135117
6
3
2
Received nack credit for flit 135000
Requeued flit 135000
Received nack credit for flit 135359
Requeued flit 135359
Received nack credit for flit 135286
Requeued flit 135286
3
2
Received nack credit for flit 135556
Requeued flit 135556
Received nack credit for flit 135702
Requeued flit 135702
3
Received nack credit for flit 136472
Requeued flit 136472
3
2
Received nack credit for flit 136645
Requeued flit 136645
Received nack credit for flit 136714
Requeued flit 136714
3
Received nack credit for flit 137063
Requeued flit 137063
1
Received nack credit for flit 138343
Requeued flit 138343
2
4
Received nack credit for flit 138651
Requeued flit 138651
Received nack credit for flit 138549
Requeued flit 138549
1
Received nack credit for flit 138976
Requeued flit 138976
1
1
Received nack credit for flit 139264
Requeued flit 139264
Received nack credit for flit 139267
Requeued flit 139267
1
6
1
4
Received nack credit for flit 139478
Requeued flit 139478
Received nack credit for flit 139182
Requeued flit 139182
Received nack credit for flit 139507
Requeued flit 139507
Received nack credit for flit 139264
Requeued flit 139264
3
1
1
Received nack credit for flit 139834
Requeued flit 139834
Received nack credit for flit 139699
Requeued flit 139699
2
4
Received nack credit for flit 139829
Requeued flit 139829
Received nack credit for flit 139931
Requeued flit 139931
Received nack credit for flit 139843
Requeued flit 139843
4
4
Received nack credit for flit 140511
Requeued flit 140511
Received nack credit for flit 140652
Requeued flit 140652
4
2
Received nack credit for flit 140972
Requeued flit 140972
Received nack credit for flit 141172
Requeued flit 141172
2
5
Received nack credit for flit 141334
Requeued flit 141334
Received nack credit for flit 141155
Requeued flit 141155
1
5
3
5
Received nack credit for flit 142312
Requeued flit 142312
5
3
Received nack credit for flit 142272
Requeued flit 142272
Received nack credit for flit 142104
Requeued flit 142104
Received nack credit for flit 142191
Requeued flit 142191
Received nack credit for flit 142083
Requeued flit 142083
Received nack credit for flit 142360
Requeued flit 142360
3
4
7
Received nack credit for flit 142575
Requeued flit 142575
Received nack credit for flit 142343
Requeued flit 142343
Received nack credit for flit 142655
Requeued flit 142655
2
6
Received nack credit for flit 142936
Requeued flit 142936
7
Received nack credit for flit 142659
Requeued flit 142659
Received nack credit for flit 142730
Requeued flit 142730
3
Received nack credit for flit 143154
Requeued flit 143154
3
Received nack credit for flit 143234
Requeued flit 143234
4
Received nack credit for flit 143438
Requeued flit 143438
9
1
Received nack credit for flit 143290
Requeued flit 143290
2
Received nack credit for flit 143860
Requeued flit 143860
3
Received nack credit for flit 143914
Requeued flit 143914
Received nack credit for flit 143949
Requeued flit 143949
1
5
3
1
Received nack credit for flit 144205
Requeued flit 144205
5
Received nack credit for flit 143952
Requeued flit 143952
Received nack credit for flit 144165
Requeued flit 144165
Received nack credit for flit 144294
Requeued flit 144294
9
Received nack credit for flit 144138
Requeued flit 144138
Received nack credit for flit 143867
Requeued flit 143867
2
3
Received nack credit for flit 144553
Requeued flit 144553
Received nack credit for flit 144500
Requeued flit 144500
2
1
2
8
Received nack credit for flit 144927
Requeued flit 144927
Received nack credit for flit 145135
Requeued flit 145135
Received nack credit for flit 144709
Requeued flit 144709
4
Received nack credit for flit 145126
Requeued flit 145126
Received nack credit for flit 145034
Requeued flit 145034
4
Received nack credit for flit 145223
Requeued flit 145223
2
Received nack credit for flit 145658
Requeued flit 145658
3
8
Received nack credit for flit 145896
Requeued flit 145896
Received nack credit for flit 145616
Requeued flit 145616
1
Received nack credit for flit 146158
Requeued flit 146158
10
1
1
1
Received nack credit for flit 145961
Requeued flit 145961
Received nack credit for flit 146741
Requeued flit 146741
Received nack credit for flit 146737
Requeued flit 146737
Received nack credit for flit 146747
Requeued flit 146747
5
Received nack credit for flit 146805
Requeued flit 146805
4
5
Received nack credit for flit 147055
Requeued flit 147055
3
6
Received nack credit for flit 147026
Requeued flit 147026
1
Received nack credit for flit 147321
Requeued flit 147321
9
Received nack credit for flit 147172
Requeued flit 147172
Received nack credit for flit 147502
Requeued flit 147502
Received nack credit for flit 147051
Requeued flit 147051
8
3
Received nack credit for flit 147138
Requeued flit 147138
Received nack credit for flit 147633
Requeued flit 147633
4
2
5
Received nack credit for flit 147946
Requeued flit 147946
Received nack credit for flit 147749
Requeued flit 147749
Received nack credit for flit 147759
Requeued flit 147759
1
1
Received nack credit for flit 148169
Requeued flit 148169
Received nack credit for flit 148271
Requeued flit 148271
4
Received nack credit for flit 148158
Requeued flit 148158
4
Received nack credit for flit 148504
Requeued flit 148504
1
Received nack credit for flit 148791
Requeued flit 148791
8
Received nack credit for flit 148574
Requeued flit 148574
4
Received nack credit for flit 148920
Requeued flit 148920
1
6
Received nack credit for flit 149249
Requeued flit 149249
Received nack credit for flit 148951
Requeued flit 148951
1
1
8
Received nack credit for flit 149514
Requeued flit 149514
3
Received nack credit for flit 149586
Requeued flit 149586
Received nack credit for flit 149207
Requeued flit 149207
Received nack credit for flit 149597
Requeued flit 149597
2
Received nack credit for flit 149920
Requeued flit 149920
5
5
Received nack credit for flit 150071
Requeued flit 150071
Received nack credit for flit 150096
Requeued flit 150096
2
Received nack credit for flit 150402
Requeued flit 150402
3
3
Received nack credit for flit 150569
Requeued flit 150569
Received nack credit for flit 150631
Requeued flit 150631
7
Received nack credit for flit 150941
Requeued flit 150941
2
Received nack credit for flit 151491
Requeued flit 151491
5
3
7
Received nack credit for flit 151592
Requeued flit 151592
8
Received nack credit for flit 151785
Requeued flit 151785
Received nack credit for flit 151609
Requeued flit 151609
Received nack credit for flit 151579
Requeued flit 151579
4
2
Received nack credit for flit 152759
Requeued flit 152759
Received nack credit for flit 152536
Requeued flit 152536
2
Received nack credit for flit 153224
Requeued flit 153224
2
Received nack credit for flit 153494
Requeued flit 153494
12
4
Received nack credit for flit 153036
Requeued flit 153036
Received nack credit for flit 153617
Requeued flit 153617
3
5
2
5
Received nack credit for flit 153776
Requeued flit 153776
Received nack credit for flit 153692
Requeued flit 153692
Received nack credit for flit 153642
Requeued flit 153642
Received nack credit for flit 153917
Requeued flit 153917
1
Received nack credit for flit 154229
Requeued flit 154229
3
Received nack credit for flit 154448
Requeued flit 154448
6
1
Received nack credit for flit 154535
Requeued flit 154535
Received nack credit for flit 154934
Requeued flit 154934
3
Received nack credit for flit 154946
Requeued flit 154946
5
3
Received nack credit for flit 155276
Requeued flit 155276
Received nack credit for flit 155370
Requeued flit 155370
3
1
1
Received nack credit for flit 155464
Requeued flit 155464
Received nack credit for flit 155699
Requeued flit 155699
Received nack credit for flit 155773
Requeued flit 155773
5
3
Received nack credit for flit 155697
Requeued flit 155697
Received nack credit for flit 155943
Requeued flit 155943
1
Received nack credit for flit 156207
Requeued flit 156207
3
1
4
Received nack credit for flit 156346
Requeued flit 156346
Received nack credit for flit 156511
Requeued flit 156511
Received nack credit for flit 156324
Requeued flit 156324
5
3
Received nack credit for flit 156510
Requeued flit 156510
1
Received nack credit for flit 156707
Requeued flit 156707
Received nack credit for flit 156887
Requeued flit 156887
1
3
Received nack credit for flit 157302
Requeued flit 157302
Received nack credit for flit 157165
Requeued flit 157165
1
2
Received nack credit for flit 157500
Requeued flit 157500
4
Received nack credit for flit 157511
Requeued flit 157511
6
Received nack credit for flit 157426
Requeued flit 157426
Received nack credit for flit 157486
Requeued flit 157486
1
3
Received nack credit for flit 158111
Requeued flit 158111
1
Received nack credit for flit 158047
Requeued flit 158047
Received nack credit for flit 158288
Requeued flit 158288
1
Received nack credit for flit 158610
Requeued flit 158610
3
Received nack credit for flit 158911
Requeued flit 158911
1
3
Received nack credit for flit 159583
Requeued flit 159583
Received nack credit for flit 159464
Requeued flit 159464
1
4
Received nack credit for flit 160091
Requeued flit 160091
Received nack credit for flit 159923
Requeued flit 159923
2
Received nack credit for flit 160485
Requeued flit 160485
1
7
1
Received nack credit for flit 160373
Requeued flit 160373
Received nack credit for flit 160740
Requeued flit 160740
5
Received nack credit for flit 160827
Requeued flit 160827
Received nack credit for flit 160623
Requeued flit 160623
2
5
Received nack credit for flit 160782
Requeued flit 160782
Received nack credit for flit 161012
Requeued flit 161012
2
6
Received nack credit for flit 161390
Requeued flit 161390
Received nack credit for flit 161238
Requeued flit 161238
2
1
Received nack credit for flit 161576
Requeued flit 161576
Received nack credit for flit 161723
Requeued flit 161723
4
4
6
2
Received nack credit for flit 161675
Requeued flit 161675
Received nack credit for flit 161576
Requeued flit 161576
3
Received nack credit for flit 161903
Requeued flit 161903
Received nack credit for flit 161655
Requeued flit 161655
Received nack credit for flit 161908
Requeued flit 161908
1
5
1
4
Received nack credit for flit 161934
Requeued flit 161934
Received nack credit for flit 162234
Requeued flit 162234
1
Received nack credit for flit 162266
Requeued flit 162266
Received nack credit for flit 162425
Requeued flit 162425
1
Received nack credit for flit 162541
Requeued flit 162541
1
Received nack credit for flit 162182
Requeued flit 162182
Received nack credit for flit 162684
Requeued flit 162684
2
4
Received nack credit for flit 162772
Requeued flit 162772
Received nack credit for flit 162717
Requeued flit 162717
2
Received nack credit for flit 163199
Requeued flit 163199
1
Received nack credit for flit 163660
Requeued flit 163660
7
1
Received nack credit for flit 163523
Requeued flit 163523
Received nack credit for flit 164028
Requeued flit 164028
2
Received nack credit for flit 164158
Requeued flit 164158
2
Received nack credit for flit 164471
Requeued flit 164471
1
2
Received nack credit for flit 164893
Requeued flit 164893
1
Received nack credit for flit 164875
Requeued flit 164875
5
Received nack credit for flit 165022
Requeued flit 165022
7
1
Received nack credit for flit 164877
Requeued flit 164877
Received nack credit for flit 165288
Requeued flit 165288
Received nack credit for flit 164906
Requeued flit 164906
2
6
Received nack credit for flit 165464
Requeued flit 165464
Received nack credit for flit 165243
Requeued flit 165243
2
4
Received nack credit for flit 165794
Requeued flit 165794
1
Received nack credit for flit 165677
Requeued flit 165677
Received nack credit for flit 166005
Requeued flit 166005
3
Received nack credit for flit 166057
Requeued flit 166057
1
6
8
Received nack credit for flit 165997
Requeued flit 165997
Received nack credit for flit 166140
Requeued flit 166140
Received nack credit for flit 166417
Requeued flit 166417
1
Received nack credit for flit 166722
Requeued flit 166722
6
Received nack credit for flit 166801
Requeued flit 166801
6
Received nack credit for flit 167076
Requeued flit 167076
10
3
5
Received nack credit for flit 167037
Requeued flit 167037
Received nack credit for flit 167555
Requeued flit 167555
Received nack credit for flit 167483
Requeued flit 167483
5
Received nack credit for flit 168040
Requeued flit 168040
6
1
2
Received nack credit for flit 168506
Requeued flit 168506
Received nack credit for flit 168027
Requeued flit 168027
Received nack credit for flit 168531
Requeued flit 168531
2
2
4
Received nack credit for flit 168817
Requeued flit 168817
Received nack credit for flit 168865
Requeued flit 168865
Received nack credit for flit 168745
Requeued flit 168745
6
4
Received nack credit for flit 168969
Requeued flit 168969
5
Received nack credit for flit 169183
Requeued flit 169183
Received nack credit for flit 169180
Requeued flit 169180
1
1
Received nack credit for flit 169887
Requeued flit 169887
Received nack credit for flit 169900
Requeued flit 169900
1
Received nack credit for flit 170076
Requeued flit 170076
2
Received nack credit for flit 170158
Requeued flit 170158
5
Received nack credit for flit 170398
Requeued flit 170398
1
1
1
Received nack credit for flit 171260
Requeued flit 171260
Received nack credit for flit 171262
Requeued flit 171262
2
Received nack credit for flit 171327
Requeued flit 171327
Received nack credit for flit 171310
Requeued flit 171310
1
4
Received nack credit for flit 171673
Requeued flit 171673
3
Received nack credit for flit 171527
Requeued flit 171527
4
Received nack credit for flit 171774
Requeued flit 171774
Received nack credit for flit 171802
Requeued flit 171802
6
Received nack credit for flit 172056
Requeued flit 172056
2
Received nack credit for flit 172438
Requeued flit 172438
1
Received nack credit for flit 172647
Requeued flit 172647
5
Received nack credit for flit 172584
Requeued flit 172584
1
5
Received nack credit for flit 173342
Requeued flit 173342
1
Received nack credit for flit 173195
Requeued flit 173195
Received nack credit for flit 173531
Requeued flit 173531
2
1
3
Received nack credit for flit 173702
Requeued flit 173702
Received nack credit for flit 173658
Requeued flit 173658
4
Received nack credit for flit 173693
Requeued flit 173693
Received nack credit for flit 173675
Requeued flit 173675
7
2
Received nack credit for flit 173634
Requeued flit 173634
Received nack credit for flit 174067
Requeued flit 174067
8
Received nack credit for flit 174345
Requeued flit 174345
1
1
2
Received nack credit for flit 174934
Requeued flit 174934
Received nack credit for flit 174916
Requeued flit 174916
Received nack credit for flit 174896
Requeued flit 174896
3
5
2
7
Received nack credit for flit 175099
Requeued flit 175099
Received nack credit for flit 174972
Requeued flit 174972
Received nack credit for flit 175139
Requeued flit 175139
Received nack credit for flit 174927
Requeued flit 174927
3
Received nack credit for flit 175294
Requeued flit 175294
5
7
9
Received nack credit for flit 175344
Requeued flit 175344
Received nack credit for flit 175479
Requeued flit 175479
Received nack credit for flit 175380
Requeued flit 175380
11
Received nack credit for flit 175316
Requeued flit 175316
5
2
Received nack credit for flit 176253
Requeued flit 176253
3
1
7
Received nack credit for flit 176554
Requeued flit 176554
Received nack credit for flit 176575
Requeued flit 176575
Received nack credit for flit 176337
Requeued flit 176337
Received nack credit for flit 176685
Requeued flit 176685
1
1
Received nack credit for flit 177216
Requeued flit 177216
Received nack credit for flit 177268
Requeued flit 177268
4
6
Received nack credit for flit 177264
Requeued flit 177264
Received nack credit for flit 177172
Requeued flit 177172
1
Received nack credit for flit 177783
Requeued flit 177783
6
Received nack credit for flit 177789
Requeued flit 177789
1
1
1
Received nack credit for flit 178574
Requeued flit 178574
Received nack credit for flit 178612
Requeued flit 178612
8
Received nack credit for flit 178571
Requeued flit 178571
Received nack credit for flit 178383
Requeued flit 178383
1
5
Received nack credit for flit 179289
Requeued flit 179289
Received nack credit for flit 179103
Requeued flit 179103
1
4
Received nack credit for flit 179721
Requeued flit 179721
Received nack credit for flit 179635
Requeued flit 179635
3
4
Received nack credit for flit 179804
Requeued flit 179804
Received nack credit for flit 179805
Requeued flit 179805
1
7
Received nack credit for flit 180145
Requeued flit 180145
Received nack credit for flit 179836
Requeued flit 179836
1
6
Received nack credit for flit 180368
Requeued flit 180368
5
Received nack credit for flit 180084
Requeued flit 180084
Received nack credit for flit 180268
Requeued flit 180268
3
5
Received nack credit for flit 180647
Requeued flit 180647
3
Received nack credit for flit 180572
Requeued flit 180572
7
Received nack credit for flit 180794
Requeued flit 180794
Received nack credit for flit 180581
Requeued flit 180581
6
Received nack credit for flit 180772
Requeued flit 180772
1
Received nack credit for flit 181222
Requeued flit 181222
1
Received nack credit for flit 181535
Requeued flit 181535
4
1
Received nack credit for flit 181447
Requeued flit 181447
2
1
Received nack credit for flit 181717
Requeued flit 181717
Received nack credit for flit 181812
Requeued flit 181812
Received nack credit for flit 181720
Requeued flit 181720
1
Received nack credit for flit 182113
Requeued flit 182113
3
Received nack credit for flit 182070
Requeued flit 182070
5
Received nack credit for flit 182085
Requeued flit 182085
3
4
Received nack credit for flit 182344
Requeued flit 182344
Received nack credit for flit 182367
Requeued flit 182367
3
2
Received nack credit for flit 182665
Requeued flit 182665
Received nack credit for flit 182828
Requeued flit 182828
3
3
Received nack credit for flit 183400
Requeued flit 183400
Received nack credit for flit 183468
Requeued flit 183468
5
8
Received nack credit for flit 183620
Requeued flit 183620
6
1
Received nack credit for flit 183541
Requeued flit 183541
Received nack credit for flit 183659
Requeued flit 183659
1
Received nack credit for flit 184017
Requeued flit 184017
1
1
5
Received nack credit for flit 184092
Requeued flit 184092
Received nack credit for flit 184118
Requeued flit 184118
Received nack credit for flit 184193
Requeued flit 184193
4
Received nack credit for flit 183957
Requeued flit 183957
1
Received nack credit for flit 184067
Requeued flit 184067
2
Received nack credit for flit 184318
Requeued flit 184318
Received nack credit for flit 184394
Requeued flit 184394
3
4
Received nack credit for flit 184453
Requeued flit 184453
Received nack credit for flit 184448
Requeued flit 184448
1
Received nack credit for flit 184830
Requeued flit 184830
3
Received nack credit for flit 184921
Requeued flit 184921
7
Received nack credit for flit 185251
Requeued flit 185251
7
3
Received nack credit for flit 185513
Requeued flit 185513
Received nack credit for flit 185780
Requeued flit 185780
8
Received nack credit for flit 185855
Requeued flit 185855
4
4
Received nack credit for flit 186237
Requeued flit 186237
Received nack credit for flit 186322
Requeued flit 186322
8
Received nack credit for flit 186459
Requeued flit 186459
3
Received nack credit for flit 186869
Requeued flit 186869
5
Received nack credit for flit 187153
Requeued flit 187153
3
Received nack credit for flit 187391
Requeued flit 187391
4
3
Received nack credit for flit 187978
Requeued flit 187978
1
5
Received nack credit for flit 188074
Requeued flit 188074
Received nack credit for flit 188351
Requeued flit 188351
5
Received nack credit for flit 188118
Requeued flit 188118
Received nack credit for flit 188284
Requeued flit 188284
1
1
1
Received nack credit for flit 188704
Requeued flit 188704
Received nack credit for flit 188684
Requeued flit 188684
Received nack credit for flit 188731
Requeued flit 188731
7
4
Received nack credit for flit 188539
Requeued flit 188539
1
Received nack credit for flit 188817
Requeued flit 188817
Received nack credit for flit 189219
Requeued flit 189219
3
Received nack credit for flit 189249
Requeued flit 189249
2
7
Received nack credit for flit 189589
Requeued flit 189589
8
Received nack credit for flit 189308
Requeued flit 189308
Received nack credit for flit 189396
Requeued flit 189396
3
2
Received nack credit for flit 189958
Requeued flit 189958
Received nack credit for flit 189842
Requeued flit 189842
1
2
Received nack credit for flit 190295
Requeued flit 190295
Received nack credit for flit 190270
Requeued flit 190270
5
Received nack credit for flit 190291
Requeued flit 190291
6
1
Received nack credit for flit 190614
Requeued flit 190614
Received nack credit for flit 190967
Requeued flit 190967
5
Received nack credit for flit 190883
Requeued flit 190883
1
Received nack credit for flit 191376
Requeued flit 191376
Class 0:
Packet latency average = 22.1716
	minimum = 5
	maximum = 66
Network latency average = 22.1716
	minimum = 5
	maximum = 66
Slowest packet = 175316
Flit latency average = 22.1716
	minimum = 5
	maximum = 66
Slowest flit = 175316
Fragmentation average = 0
	minimum = 0
	maximum = 0
Injected packet rate average = 0.299513
	minimum = 0.2832 (at node 11)
	maximum = 0.3096 (at node 10)
Accepted packet rate average = 0.298848
	minimum = 0.2885 (at node 33)
	maximum = 0.3119 (at node 53)
Injected flit rate average = 0.299513
	minimum = 0.2832 (at node 11)
	maximum = 0.3096 (at node 10)
Accepted flit rate average= 0.298848
	minimum = 0.2885 (at node 33)
	maximum = 0.3119 (at node 53)
Injected packet length average = 1
Accepted packet length average = 1
Total in-flight flits = 425 (0 measured)
latency change    = 1
throughput change = 1
2
3
6
Received nack credit for flit 191636
Requeued flit 191636
Received nack credit for flit 191675
Requeued flit 191675
Received nack credit for flit 191513
Requeued flit 191513
4
1
5
6
Received nack credit for flit 191994
Requeued flit 191994
Received nack credit for flit 191802
Requeued flit 191802
4
Received nack credit for flit 191756
Requeued flit 191756
Received nack credit for flit 191810
Requeued flit 191810
Received nack credit for flit 191925
Requeued flit 191925
6
Received nack credit for flit 192192
Requeued flit 192192
3
Received nack credit for flit 192472
Requeued flit 192472
1
1
Received nack credit for flit 192712
Requeued flit 192712
5
Received nack credit for flit 192807
Requeued flit 192807
4
Received nack credit for flit 192663
Requeued flit 192663
3
Received nack credit for flit 192841
Requeued flit 192841
Received nack credit for flit 193013
Requeued flit 193013
3
3
8
Received nack credit for flit 193504
Requeued flit 193504
Received nack credit for flit 193540
Requeued flit 193540
2
1
Received nack credit for flit 193264
Requeued flit 193264
Received nack credit for flit 193716
Requeued flit 193716
Received nack credit for flit 193828
Requeued flit 193828
6
6
1
5
Received nack credit for flit 194040
Requeued flit 194040
Received nack credit for flit 193837
Requeued flit 193837
3
Received nack credit for flit 193654
Requeued flit 193654
4
Received nack credit for flit 194084
Requeued flit 194084
Received nack credit for flit 194061
Requeued flit 194061
1
Received nack credit for flit 194393
Requeued flit 194393
6
8
Received nack credit for flit 194274
Requeued flit 194274
Received nack credit for flit 194214
Requeued flit 194214
1
Received nack credit for flit 194736
Requeued flit 194736
1
1
1
3
Received nack credit for flit 195335
Requeued flit 195335
Received nack credit for flit 195360
Requeued flit 195360
Received nack credit for flit 195295
Requeued flit 195295
Received nack credit for flit 195391
Requeued flit 195391
3
11
3
Received nack credit for flit 195568
Requeued flit 195568
Received nack credit for flit 195084
Requeued flit 195084
Received nack credit for flit 195601
Requeued flit 195601
2
Received nack credit for flit 195825
Requeued flit 195825
1
1
Received nack credit for flit 196372
Requeued flit 196372
2
4
Received nack credit for flit 196445
Requeued flit 196445
Received nack credit for flit 196536
Requeued flit 196536
Received nack credit for flit 196437
Requeued flit 196437
2
6
2
1
Received nack credit for flit 196937
Requeued flit 196937
Received nack credit for flit 196737
Requeued flit 196737
Received nack credit for flit 196984
Requeued flit 196984
Received nack credit for flit 197045
Requeued flit 197045
1
Received nack credit for flit 197456
Requeued flit 197456
1
1
1
Received nack credit for flit 197804
Requeued flit 197804
1
Received nack credit for flit 197901
Requeued flit 197901
Received nack credit for flit 197902
Requeued flit 197902
Received nack credit for flit 197956
Requeued flit 197956
3
2
Received nack credit for flit 198076
Requeued flit 198076
Received nack credit for flit 198164
Requeued flit 198164
6
5
Received nack credit for flit 198330
Requeued flit 198330
Received nack credit for flit 198414
Requeued flit 198414
5
Received nack credit for flit 198766
Requeued flit 198766
4
Received nack credit for flit 198958
Requeued flit 198958
3
2
Received nack credit for flit 199732
Requeued flit 199732
Received nack credit for flit 199859
Requeued flit 199859
5
Received nack credit for flit 199937
Requeued flit 199937
1
Received nack credit for flit 200299
Requeued flit 200299
4
Received nack credit for flit 200466
Requeued flit 200466
4
Received nack credit for flit 200621
Requeued flit 200621
1
1
Received nack credit for flit 201328
Requeued flit 201328
11
Received nack credit for flit 201424
Requeued flit 201424
Received nack credit for flit 200881
Requeued flit 200881
5
2
Received nack credit for flit 201376
Requeued flit 201376
Received nack credit for flit 201658
Requeued flit 201658
6
Received nack credit for flit 201686
Requeued flit 201686
1
Received nack credit for flit 202233
Requeued flit 202233
1
9
4
Received nack credit for flit 202348
Requeued flit 202348
Received nack credit for flit 201874
Requeued flit 201874
Received nack credit for flit 202316
Requeued flit 202316
2
3
Received nack credit for flit 202883
Requeued flit 202883
Received nack credit for flit 202838
Requeued flit 202838
6
Received nack credit for flit 202980
Requeued flit 202980
3
Received nack credit for flit 203440
Requeued flit 203440
1
6
Received nack credit for flit 203892
Requeued flit 203892
Received nack credit for flit 203660
Requeued flit 203660
1
2
Received nack credit for flit 204072
Requeued flit 204072
Received nack credit for flit 204103
Requeued flit 204103
5
1
Received nack credit for flit 204055
Requeued flit 204055
Received nack credit for flit 204351
Requeued flit 204351
4
2
Received nack credit for flit 204510
Requeued flit 204510
Received nack credit for flit 204415
Requeued flit 204415
2
1
9
Received nack credit for flit 204714
Requeued flit 204714
Received nack credit for flit 204854
Requeued flit 204854
Received nack credit for flit 204381
Requeued flit 204381
2
Received nack credit for flit 205211
Requeued flit 205211
5
1
Received nack credit for flit 205156
Requeued flit 205156
1
Received nack credit for flit 205513
Requeued flit 205513
Received nack credit for flit 205567
Requeued flit 205567
4
Received nack credit for flit 205733
Requeued flit 205733
1
Received nack credit for flit 206080
Requeued flit 206080
4
Received nack credit for flit 206175
Requeued flit 206175
2
7
Received nack credit for flit 206747
Requeued flit 206747
[...]
Requeued flit 1106586
9
4
Received nack credit for flit 1106329
Requeued flit 1106329
Received nack credit for flit 1106581
Requeued flit 1106581
6
Received nack credit for flit 1106602
Requeued flit 1106602
1
Received nack credit for flit 1107484
Requeued flit 1107484
2
Received nack credit for flit 1107883
Requeued flit 1107883
6
Received nack credit for flit 1107700
Requeued flit 1107700
2
1
3
Received nack credit for flit 1108212
Requeued flit 1108212
1
1
8
Received nack credit for flit 1108308
Requeued flit 1108308
Received nack credit for flit 1108183
Requeued flit 1108183
Received nack credit for flit 1108373
Requeued flit 1108373
Received nack credit for flit 1108349
Requeued flit 1108349
3
Received nack credit for flit 1107883
Requeued flit 1107883
3
Received nack credit for flit 1108410
Requeued flit 1108410
8
Received nack credit for flit 1108346
Requeued flit 1108346
Received nack credit for flit 1108180
Requeued flit 1108180
4
4
Received nack credit for flit 1108688
Requeued flit 1108688
12
Received nack credit for flit 1108706
Requeued flit 1108706
Received nack credit for flit 1108260
Requeued flit 1108260
4
2
Received nack credit for flit 1109087
Requeued flit 1109087
Received nack credit for flit 1109324
Requeued flit 1109324
6
6
Received nack credit for flit 1109549
Requeued flit 1109549
Received nack credit for flit 1109624
Requeued flit 1109624
3
7
3
Received nack credit for flit 1109823
Requeued flit 1109823
Received nack credit for flit 1110053
Requeued flit 1110053
Received nack credit for flit 1110166
Requeued flit 1110166
1
Received nack credit for flit 1110457
Requeued flit 1110457
2
1
Received nack credit for flit 1110546
Requeued flit 1110546
2
Received nack credit for flit 1110706
Requeued flit 1110706
5
Received nack credit for flit 1110829
Requeued flit 1110829
4
6
Received nack credit for flit 1110729
Requeued flit 1110729
7
2
Received nack credit for flit 1110644
Requeued flit 1110644
Received nack credit for flit 1110782
Requeued flit 1110782
Received nack credit for flit 1110874
Requeued flit 1110874
Received nack credit for flit 1111126
Requeued flit 1111126
2
Received nack credit for flit 1111126
Requeued flit 1111126
1
Received nack credit for flit 1111611
Requeued flit 1111611
5
Received nack credit for flit 1111541
Requeued flit 1111541
2
Received nack credit for flit 1111813
Requeued flit 1111813
2
Received nack credit for flit 1112056
Requeued flit 1112056
1
Received nack credit for flit 1112276
Requeued flit 1112276
9
Received nack credit for flit 1112033
Requeued flit 1112033
3
Received nack credit for flit 1112624
Requeued flit 1112624
6
6
Received nack credit for flit 1112520
Requeued flit 1112520
1
Received nack credit for flit 1112643
Requeued flit 1112643
Received nack credit for flit 1113025
Requeued flit 1113025
4
1
Received nack credit for flit 1113266
Requeued flit 1113266
Received nack credit for flit 1113529
Requeued flit 1113529
2
1
Received nack credit for flit 1113716
Requeued flit 1113716
2
1
Received nack credit for flit 1113868
Requeued flit 1113868
1
Received nack credit for flit 1113974
Requeued flit 1113974
Received nack credit for flit 1113790
Requeued flit 1113790
6
Received nack credit for flit 1114021
Requeued flit 1114021
Received nack credit for flit 1113767
Requeued flit 1113767
8
Received nack credit for flit 1113870
Requeued flit 1113870
2
Received nack credit for flit 1114391
Requeued flit 1114391
3
6
Received nack credit for flit 1114675
Requeued flit 1114675
Received nack credit for flit 1114483
Requeued flit 1114483
1
1
Received nack credit for flit 1115075
Requeued flit 1115075
Received nack credit for flit 1115118
Requeued flit 1115118
5
Received nack credit for flit 1115456
Requeued flit 1115456
4
Received nack credit for flit 1115819
Requeued flit 1115819
2
1
Received nack credit for flit 1116209
Requeued flit 1116209
2
Received nack credit for flit 1116395
Requeued flit 1116395
Received nack credit for flit 1116386
Requeued flit 1116386
7
Received nack credit for flit 1116355
Requeued flit 1116355
1
1
Received nack credit for flit 1116991
Requeued flit 1116991
Received nack credit for flit 1116997
Requeued flit 1116997
8
Received nack credit for flit 1116788
Requeued flit 1116788
2
4
Received nack credit for flit 1117344
Requeued flit 1117344
Received nack credit for flit 1117248
Requeued flit 1117248
4
5
Received nack credit for flit 1117904
Requeued flit 1117904
1
Received nack credit for flit 1117939
Requeued flit 1117939
5
Received nack credit for flit 1118245
Requeued flit 1118245
Received nack credit for flit 1118088
Requeued flit 1118088
1
2
Received nack credit for flit 1118590
Requeued flit 1118590
Received nack credit for flit 1118645
Requeued flit 1118645
4
4
Received nack credit for flit 1118783
Requeued flit 1118783
Received nack credit for flit 1118914
Requeued flit 1118914
1
Received nack credit for flit 1119177
Requeued flit 1119177
1
Received nack credit for flit 1119504
Requeued flit 1119504
1
Received nack credit for flit 1119838
Requeued flit 1119838
1
5
5
Received nack credit for flit 1119995
Requeued flit 1119995
Received nack credit for flit 1119825
Requeued flit 1119825
Received nack credit for flit 1119870
Requeued flit 1119870
2
Received nack credit for flit 1120184
Requeued flit 1120184
2
Received nack credit for flit 1120759
Requeued flit 1120759
4
1
Received nack credit for flit 1120790
Requeued flit 1120790
Received nack credit for flit 1121062
Requeued flit 1121062
5
Received nack credit for flit 1120961
Requeued flit 1120961
6
Received nack credit for flit 1121273
Requeued flit 1121273
4
Received nack credit for flit 1121526
Requeued flit 1121526
5
6
3
3
Received nack credit for flit 1121903
Requeued flit 1121903
Received nack credit for flit 1121759
Requeued flit 1121759
Received nack credit for flit 1122061
Requeued flit 1122061
Received nack credit for flit 1122127
Requeued flit 1122127
1
Received nack credit for flit 1122513
Requeued flit 1122513
1
Received nack credit for flit 1122658
Requeued flit 1122658
3
6
5
2
Received nack credit for flit 1122562
Requeued flit 1122562
Received nack credit for flit 1122668
Requeued flit 1122668
Received nack credit for flit 1122860
Requeued flit 1122860
Received nack credit for flit 1122667
Requeued flit 1122667
3
12
Received nack credit for flit 1123140
Requeued flit 1123140
Received nack credit for flit 1122558
Requeued flit 1122558
11
4
6
2
Received nack credit for flit 1122880
Requeued flit 1122880
Received nack credit for flit 1123390
Requeued flit 1123390
Received nack credit for flit 1123525
Requeued flit 1123525
Received nack credit for flit 1123255
Requeued flit 1123255
7
4
2
Received nack credit for flit 1123508
Requeued flit 1123508
Received nack credit for flit 1123753
Requeued flit 1123753
8
Received nack credit for flit 1123877
Requeued flit 1123877
Received nack credit for flit 1123656
Requeued flit 1123656
2
Received nack credit for flit 1124122
Requeued flit 1124122
2
Received nack credit for flit 1124713
Requeued flit 1124713
3
5
3
4
Received nack credit for flit 1125251
Requeued flit 1125251
1
Received nack credit for flit 1125286
Requeued flit 1125286
Received nack credit for flit 1125176
Requeued flit 1125176
2
Received nack credit for flit 1125271
Requeued flit 1125271
Received nack credit for flit 1125490
Requeued flit 1125490
1
Received nack credit for flit 1125650
Requeued flit 1125650
Received nack credit for flit 1125502
Requeued flit 1125502
2
Received nack credit for flit 1126071
Requeued flit 1126071
3
Received nack credit for flit 1126306
Requeued flit 1126306
1
Received nack credit for flit 1126598
Requeued flit 1126598
1
Received nack credit for flit 1126734
Requeued flit 1126734
2
2
8
Received nack credit for flit 1127043
Requeued flit 1127043
5
3
Received nack credit for flit 1127138
Requeued flit 1127138
Received nack credit for flit 1126784
Requeued flit 1126784
Received nack credit for flit 1127246
Requeued flit 1127246
Received nack credit for flit 1127052
Requeued flit 1127052
5
5
Received nack credit for flit 1127290
Requeued flit 1127290
Received nack credit for flit 1127340
Requeued flit 1127340
1
7
Received nack credit for flit 1127824
Requeued flit 1127824
5
4
Received nack credit for flit 1127569
Requeued flit 1127569
4
Received nack credit for flit 1127702
Requeued flit 1127702
Received nack credit for flit 1127867
Requeued flit 1127867
Received nack credit for flit 1127886
Requeued flit 1127886
1
2
5
Received nack credit for flit 1128312
Requeued flit 1128312
Received nack credit for flit 1128130
Requeued flit 1128130
Received nack credit for flit 1128235
Requeued flit 1128235
1
Received nack credit for flit 1128724
Requeued flit 1128724
5
Received nack credit for flit 1128637
Requeued flit 1128637
3
1
Received nack credit for flit 1128929
Requeued flit 1128929
Received nack credit for flit 1129089
Requeued flit 1129089
6
1
5
Received nack credit for flit 1129133
Requeued flit 1129133
Received nack credit for flit 1129515
Requeued flit 1129515
Received nack credit for flit 1129272
Requeued flit 1129272
5
Received nack credit for flit 1129659
Requeued flit 1129659
4
Received nack credit for flit 1129977
Requeued flit 1129977
1
Received nack credit for flit 1130489
Requeued flit 1130489
9
1
Received nack credit for flit 1130104
Requeued flit 1130104
Received nack credit for flit 1130613
Requeued flit 1130613
3
Received nack credit for flit 1131208
Requeued flit 1131208
5
1
Received nack credit for flit 1131503
Requeued flit 1131503
Received nack credit for flit 1131235
Requeued flit 1131235
1
1
4
Received nack credit for flit 1131879
Requeued flit 1131879
Received nack credit for flit 1131915
Requeued flit 1131915
Received nack credit for flit 1131856
Requeued flit 1131856
1
Received nack credit for flit 1132415
Requeued flit 1132415
4
1
Received nack credit for flit 1132486
Requeued flit 1132486
Received nack credit for flit 1132741
Requeued flit 1132741
3
1
Received nack credit for flit 1132831
Requeued flit 1132831
4
9
1
Received nack credit for flit 1132886
Requeued flit 1132886
Received nack credit for flit 1133023
Requeued flit 1133023
2
Received nack credit for flit 1132649
Requeued flit 1132649
Received nack credit for flit 1133147
Requeued flit 1133147
Received nack credit for flit 1133160
Requeued flit 1133160
6
Received nack credit for flit 1133008
Requeued flit 1133008
3
3
4
Received nack credit for flit 1133466
Requeued flit 1133466
Received nack credit for flit 1133456
Requeued flit 1133456
6
Received nack credit for flit 1133488
Requeued flit 1133488
8
Received nack credit for flit 1133506
Requeued flit 1133506
Received nack credit for flit 1133430
Requeued flit 1133430
3
2
Received nack credit for flit 1134102
Requeued flit 1134102
Received nack credit for flit 1134234
Requeued flit 1134234
1
Received nack credit for flit 1134424
Requeued flit 1134424
1
Received nack credit for flit 1134636
Requeued flit 1134636
1
2
1
Received nack credit for flit 1134871
Requeued flit 1134871
Received nack credit for flit 1134815
Requeued flit 1134815
Received nack credit for flit 1134821
Requeued flit 1134821
3
Received nack credit for flit 1134882
Requeued flit 1134882
1
Received nack credit for flit 1135493
Requeued flit 1135493
8
Received nack credit for flit 1135221
Requeued flit 1135221
6
Received nack credit for flit 1135666
Requeued flit 1135666
6
4
Received nack credit for flit 1135800
Requeued flit 1135800
Received nack credit for flit 1135959
Requeued flit 1135959
4
Received nack credit for flit 1136086
Requeued flit 1136086
6
1
2
Received nack credit for flit 1136197
Requeued flit 1136197
Received nack credit for flit 1136514
Requeued flit 1136514
Received nack credit for flit 1136554
Requeued flit 1136554
5
1
Received nack credit for flit 1136595
Requeued flit 1136595
4
Received nack credit for flit 1136863
Requeued flit 1136863
8
Received nack credit for flit 1136776
Requeued flit 1136776
Received nack credit for flit 1136579
Requeued flit 1136579
1
5
1
Received nack credit for flit 1136908
Requeued flit 1136908
Received nack credit for flit 1137108
Requeued flit 1137108
1
Received nack credit for flit 1137236
Requeued flit 1137236
1
Received nack credit for flit 1137349
Requeued flit 1137349
Received nack credit for flit 1137399
Requeued flit 1137399
2
Received nack credit for flit 1137738
Requeued flit 1137738
3
1
Received nack credit for flit 1137797
Requeued flit 1137797
Received nack credit for flit 1138004
Requeued flit 1138004
6
5
Received nack credit for flit 1138067
Requeued flit 1138067
Received nack credit for flit 1138018
Requeued flit 1138018
4
Received nack credit for flit 1138665
Requeued flit 1138665
1
Received nack credit for flit 1139135
Requeued flit 1139135
1
Received nack credit for flit 1139322
Requeued flit 1139322
3
1
1
1
Received nack credit for flit 1139600
Requeued flit 1139600
Received nack credit for flit 1139644
Requeued flit 1139644
Received nack credit for flit 1139753
Requeued flit 1139753
Received nack credit for flit 1139477
Requeued flit 1139477
3
1
Received nack credit for flit 1139916
Requeued flit 1139916
Received nack credit for flit 1140148
Requeued flit 1140148
3
1
Received nack credit for flit 1140291
Requeued flit 1140291
Received nack credit for flit 1140485
Requeued flit 1140485
4
Received nack credit for flit 1140509
Requeued flit 1140509
4
1
Received nack credit for flit 1141614
Requeued flit 1141614
Received nack credit for flit 1141392
Requeued flit 1141392
6
11
6
Received nack credit for flit 1141518
Requeued flit 1141518
Received nack credit for flit 1141259
Requeued flit 1141259
Received nack credit for flit 1141609
Requeued flit 1141609
1
2
1
Received nack credit for flit 1142437
Requeued flit 1142437
Received nack credit for flit 1142401
Requeued flit 1142401
Received nack credit for flit 1142574
Requeued flit 1142574
1
Received nack credit for flit 1142987
Requeued flit 1142987
2
Received nack credit for flit 1143300
Requeued flit 1143300
1
Received nack credit for flit 1143529
Requeued flit 1143529
1
Received nack credit for flit 1143632
Requeued flit 1143632
8
2
Received nack credit for flit 1143372
Requeued flit 1143372
Received nack credit for flit 1143696
Requeued flit 1143696
2
2
Received nack credit for flit 1144307
Requeued flit 1144307
1
7
1
Received nack credit for flit 1144502
Requeued flit 1144502
Received nack credit for flit 1144386
Requeued flit 1144386
Received nack credit for flit 1144196
Requeued flit 1144196
2
Received nack credit for flit 1144569
Requeued flit 1144569
1
Received nack credit for flit 1144386
Requeued flit 1144386
Received nack credit for flit 1144714
Requeued flit 1144714
4
7
Received nack credit for flit 1144813
Requeued flit 1144813
Received nack credit for flit 1144637
Requeued flit 1144637
4
Received nack credit for flit 1145747
Requeued flit 1145747
1
3
1
Received nack credit for flit 1146147
Requeued flit 1146147
Received nack credit for flit 1146216
Requeued flit 1146216
Received nack credit for flit 1146127
Requeued flit 1146127
6
Received nack credit for flit 1146218
Requeued flit 1146218
9
1
Received nack credit for flit 1146357
Requeued flit 1146357
3
4
Received nack credit for flit 1146934
Requeued flit 1146934
Received nack credit for flit 1146924
Requeued flit 1146924
4
1
Received nack credit for flit 1146870
Requeued flit 1146870
8
Received nack credit for flit 1147284
Requeued flit 1147284
Received nack credit for flit 1147077
Requeued flit 1147077
Received nack credit for flit 1146987
Requeued flit 1146987
8
2
Received nack credit for flit 1147086
Requeued flit 1147086
Received nack credit for flit 1147568
Requeued flit 1147568
2
3
Received nack credit for flit 1147839
Requeued flit 1147839
Received nack credit for flit 1147848
Requeued flit 1147848
1
Received nack credit for flit 1148104
Requeued flit 1148104
7
Received nack credit for flit 1147909
Requeued flit 1147909
2
Received nack credit for flit 1148303
Requeued flit 1148303
1
2
5
Received nack credit for flit 1148578
Requeued flit 1148578
Received nack credit for flit 1148549
Requeued flit 1148549
Received nack credit for flit 1148511
Requeued flit 1148511
7
1
2
Received nack credit for flit 1148833
Requeued flit 1148833
Received nack credit for flit 1149409
Requeued flit 1149409
Received nack credit for flit 1149390
Requeued flit 1149390
1
3
Received nack credit for flit 1149596
Requeued flit 1149596
Received nack credit for flit 1149534
Requeued flit 1149534
4
Received nack credit for flit 1149662
Requeued flit 1149662
1
4
Received nack credit for flit 1150035
Requeued flit 1150035
Received nack credit for flit 1149924
Requeued flit 1149924
10
Received nack credit for flit 1149711
Requeued flit 1149711
5
Received nack credit for flit 1150318
Requeued flit 1150318
1
Received nack credit for flit 1150744
Requeued flit 1150744
7
6
Received nack credit for flit 1150470
Requeued flit 1150470
Received nack credit for flit 1150604
Requeued flit 1150604
3
3
1
Received nack credit for flit 1151058
Requeued flit 1151058
Received nack credit for flit 1151131
Requeued flit 1151131
Received nack credit for flit 1151275
Requeued flit 1151275
1
Received nack credit for flit 1151550
Requeued flit 1151550
1
2
Received nack credit for flit 1151676
Requeued flit 1151676
Class 0:
Packet latency average = 22.1845
	minimum = 5
	maximum = 64
Network latency average = 22.1845
	minimum = 5
	maximum = 64
Slowest packet = 1008782
Flit latency average = 22.1871
	minimum = 5
	maximum = 64
Slowest flit = 1008782
Fragmentation average = 0
	minimum = 0
	maximum = 0
Injected packet rate average = 0.300191
	minimum = 0.2942 (at node 20)
	maximum = 0.304867 (at node 7)
Accepted packet rate average = 0.300182
	minimum = 0.292867 (at node 14)
	maximum = 0.308033 (at node 15)
Injected flit rate average = 0.300191
	minimum = 0.2942 (at node 20)
	maximum = 0.304867 (at node 7)
Accepted flit rate average= 0.300182
	minimum = 0.292867 (at node 14)
	maximum = 0.308033 (at node 15)
Injected packet length average = 1
Accepted packet length average = 1
Total in-flight flits = 453 (453 measured)
latency change    = 0.00038718
throughput change = 0.000373905
Draining all recorded packets ...
Received nack credit for flit 1151741
Requeued flit 1151741
5
6
Received nack credit for flit 1151749
Requeued flit 1151749
Received nack credit for flit 1151678
Requeued flit 1151678
1
2
Received nack credit for flit 1152236
Requeued flit 1152236
Received nack credit for flit 1152303
Requeued flit 1152303
3
1
Received nack credit for flit 1152343
Requeued flit 1152343
Received nack credit for flit 1152558
Requeued flit 1152558
9
Draining remaining packets ...
7
Received nack credit for flit 1152228
Requeued flit 1152228
4
Received nack credit for flit 1152423
Requeued flit 1152423
Received nack credit for flit 1152660
Requeued flit 1152660
10
Received nack credit for flit 1152643
Requeued flit 1152643
Time taken is 60093 cycles
====== Overall Traffic Statistics ======
====== Traffic class 0 ======
Packet latency average = 22.1878 (1 samples)
	minimum = 5 (1 samples)
	maximum = 64 (1 samples)
Network latency average = 22.1878 (1 samples)
	minimum = 5 (1 samples)
	maximum = 64 (1 samples)
Flit latency average = 22.1913 (1 samples)
	minimum = 5 (1 samples)
	maximum = 64 (1 samples)
Fragmentation average = 0 (1 samples)
	minimum = 0 (1 samples)
	maximum = 0 (1 samples)
Injected packet rate average = 0.300191 (1 samples)
	minimum = 0.2942 (1 samples)
	maximum = 0.304867 (1 samples)
Accepted packet rate average = 0.300182 (1 samples)
	minimum = 0.292867 (1 samples)
	maximum = 0.308033 (1 samples)
Injected flit rate average = 0.300191 (1 samples)
	minimum = 0.2942 (1 samples)
	maximum = 0.304867 (1 samples)
Accepted flit rate average = 0.300182 (1 samples)
	minimum = 0.292867 (1 samples)
	maximum = 0.308033 (1 samples)
Injected packet size average = 1 (1 samples)
Accepted packet size average = 1 (1 samples)
Hops average = 6.25317 (1 samples)
Total run time 100.556
