BEGIN Configuration File: examples/ecc_mesh88_config_1_0.900_packet_3
// $Id$

// Copyright (c) 2007-2015, Trustees of The Leland Stanford Junior University
// All rights reserved.
//
// Redistribution and use in source and binary forms, with or without
// modification, are permitted provided that the following conditions are met:
//
// Redistributions of source code must retain the above copyright notice, this
// list of conditions and the following disclaimer.
// Redistributions in binary form must reproduce the above copyright notice,
// this list of conditions and the following disclaimer in the documentation
// and/or other materials provided with the distribution.
//
// THIS SOFTWARE IS PROVIDED BY THE COPYRIGHT HOLDERS AND CONTRIBUTORS "AS IS"
// AND ANY EXPRESS OR IMPLIED WARRANTIES, INCLUDING, BUT NOT LIMITED TO, THE
// IMPLIED WARRANTIES OF MERCHANTABILITY AND FITNESS FOR A PARTICULAR PURPOSE
// ARE DISCLAIMED. IN NO EVENT SHALL THE COPYRIGHT OWNER OR CONTRIBUTORS BE
// LIABLE FOR ANY DIRECT, INDIRECT, INCIDENTAL, SPECIAL, EXEMPLARY, OR
// CONSEQUENTIAL DAMAGES (INCLUDING, BUT NOT LIMITED TO, PROCUREMENT OF
// SUBSTITUTE GOODS OR SERVICES; LOSS OF USE, DATA, OR PROFITS; OR BUSINESS
// INTERRUPTION) HOWEVER CAUSED AND ON ANY THEORY OF LIABILITY, WHETHER IN
// CONTRACT, STRICT LIABILITY, OR TORT (INCLUDING NEGLIGENCE OR OTHERWISE)
// ARISING IN ANY WAY OUT OF THE USE OF THIS SOFTWARE, EVEN IF ADVISED OF THE
// POSSIBILITY OF SUCH DAMAGE.

// Dragonfly
//




vc_buf_size = 256;


wait_for_tail_credit = 0;

//
// Router architecture
//
vc_allocator = separable_input_first; 
sw_allocator = separable_input_first;
alloc_iters  = 1;

credit_delay   = 2;
routing_delay  = 0;
vc_alloc_delay = 1;
sw_alloc_delay = 1;
st_final_delay = 1;

input_speedup     = 1;
output_speedup    = 1;
internal_speedup  = 2.0;


warmup_periods = 3;
sim_count          = 1;

sample_period  = 10000;  


routing_function = dor;
num_vcs     = 2;

priority = none;
traffic       = uniform; 

injection_rate = 0.9;
packet_size = 1;
injection_rate_uses_flits = 1;

topology = mesh;

k  = 8;
n  = 2;

fer = 3;
ecc = link;

watch_out=-;
//watch_file = watch.txt;

ecc = packet;

stats_out = examples/ecc_mesh88_config_1_0.900_packet_3.m;

END Configuration File: examples/ecc_mesh88_config_1_0.900_packet_3
Additional hops: 6
Set signal latency stall time: 12
Additional hops: 12
Set signal latency stall time: 12
Additional hops: 15
Set signal latency stall time: 6
Reenqueueing errored packet 18 at time 33
Reenqueueing errored packet 923 at time 35
Reenqueueing errored packet 39 at time 35
Additional hops: 19
Set signal latency stall time: 8
Reenqueueing errored packet 779 at time 44
Additional hops: 30
Set signal latency stall time: 22
Additional hops: 37
Set signal latency stall time: 14
Additional hops: 41
Set signal latency stall time: 8
Additional hops: 46
Set signal latency stall time: 10
Additional hops: 49
Set signal latency stall time: 6
Reenqueueing errored packet 1061 at time 62
Reenqueueing errored packet 2203 at time 64
Reenqueueing errored packet 2655 at time 65
Reenqueueing errored packet 1824 at time 67
Reenqueueing errored packet 79 at time 67
Additional hops: 60
Set signal latency stall time: 22
Additional hops: 63
Set signal latency stall time: 6
Additional hops: 64
Set signal latency stall time: 2
Reenqueueing errored packet 4033 at time 78
Reenqueueing errored packet 3390 at time 79
Reenqueueing errored packet 530 at time 93
Additional hops: 67
Set signal latency stall time: 6
Additional hops: 73
Set signal latency stall time: 12
Additional hops: 85
Set signal latency stall time: 24
Reenqueueing errored packet 4507 at time 108
Additional hops: 91
Set signal latency stall time: 12
Additional hops: 100
Set signal latency stall time: 18
Reenqueueing errored packet 3080 at time 115
Additional hops: 106
Set signal latency stall time: 12
Additional hops: 113
Set signal latency stall time: 14
Additional hops: 120
Set signal latency stall time: 14
Reenqueueing errored packet 4622 at time 124
Additional hops: 123
Set signal latency stall time: 6
Reenqueueing errored packet 4917 at time 129
Reenqueueing errored packet 3053 at time 131
Reenqueueing errored packet 909 at time 132
Reenqueueing errored packet 2261 at time 133
Reenqueueing errored packet 4759 at time 134
Reenqueueing errored packet 2023 at time 137
Additional hops: 126
Set signal latency stall time: 6
Additional hops: 127
Set signal latency stall time: 2
Additional hops: 136
Set signal latency stall time: 18
Reenqueueing errored packet 8242 at time 151
Additional hops: 142
Set signal latency stall time: 12
Reenqueueing errored packet 5699 at time 155
Additional hops: 152
Set signal latency stall time: 20
Reenqueueing errored packet 3756 at time 164
Additional hops: 161
Set signal latency stall time: 18
Additional hops: 170
Set signal latency stall time: 18
Reenqueueing errored packet 3948 at time 169
Additional hops: 178
Set signal latency stall time: 16
Additional hops: 182
Set signal latency stall time: 8
Additional hops: 191
Set signal latency stall time: 18
Reenqueueing errored packet 2417 at time 180
Reenqueueing errored packet 4380 at time 181
Reenqueueing errored packet 2145 at time 183
Additional hops: 197
Set signal latency stall time: 12
Reenqueueing errored packet 1740 at time 187
Reenqueueing errored packet 3616 at time 189
Additional hops: 205
Set signal latency stall time: 16
Additional hops: 209
Set signal latency stall time: 8
Additional hops: 214
Set signal latency stall time: 10
Additional hops: 223
Set signal latency stall time: 18
Reenqueueing errored packet 4204 at time 196
Reenqueueing errored packet 3662 at time 197
Reenqueueing errored packet 8323 at time 201
Reenqueueing errored packet 7175 at time 204
Additional hops: 229
Set signal latency stall time: 12
Reenqueueing errored packet 7345 at time 209
Additional hops: 236
Set signal latency stall time: 14
Reenqueueing errored packet 3572 at time 214
Additional hops: 239
Set signal latency stall time: 6
Reenqueueing errored packet 6320 at time 218
Additional hops: 249
Set signal latency stall time: 20
Reenqueueing errored packet 7270 at time 222
Additional hops: 254
Set signal latency stall time: 10
Additional hops: 262
Set signal latency stall time: 16
Reenqueueing errored packet 7271 at time 228
Additional hops: 273
Set signal latency stall time: 22
Additional hops: 281
Set signal latency stall time: 16
Reenqueueing errored packet 6650 at time 236
Additional hops: 283
Set signal latency stall time: 4
Additional hops: 288
Set signal latency stall time: 10
Reenqueueing errored packet 13125 at time 241
Reenqueueing errored packet 4025 at time 241
Reenqueueing errored packet 4455 at time 244
Reenqueueing errored packet 4215 at time 246
Additional hops: 293
Set signal latency stall time: 10
Reenqueueing errored packet 9323 at time 251
Reenqueueing errored packet 3632 at time 251
Additional hops: 299
Set signal latency stall time: 12
Additional hops: 307
Set signal latency stall time: 16
Additional hops: 314
Set signal latency stall time: 14
Additional hops: 321
Set signal latency stall time: 14
Reenqueueing errored packet 9033 at time 259
Additional hops: 325
Set signal latency stall time: 8
Additional hops: 332
Set signal latency stall time: 14
Reenqueueing errored packet 10083 at time 268
Reenqueueing errored packet 7738 at time 269
Reenqueueing errored packet 5399 at time 271
Reenqueueing errored packet 5234 at time 272
Reenqueueing errored packet 9379 at time 273
Additional hops: 339
Set signal latency stall time: 14
Additional hops: 344
Set signal latency stall time: 10
Additional hops: 350
Set signal latency stall time: 12
Reenqueueing errored packet 11294 at time 280
Additional hops: 356
Set signal latency stall time: 12
Additional hops: 360
Set signal latency stall time: 8
Reenqueueing errored packet 10578 at time 288
Reenqueueing errored packet 6544 at time 289
Reenqueueing errored packet 6965 at time 292
Reenqueueing errored packet 15204 at time 296
Reenqueueing errored packet 9680 at time 297
Additional hops: 364
Set signal latency stall time: 8
Additional hops: 369
Set signal latency stall time: 10
Additional hops: 373
Set signal latency stall time: 8
Reenqueueing errored packet 15958 at time 309
Additional hops: 378
Set signal latency stall time: 10
Additional hops: 382
Set signal latency stall time: 8
Additional hops: 389
Set signal latency stall time: 14
Additional hops: 393
Set signal latency stall time: 8
Reenqueueing errored packet 13353 at time 316
Reenqueueing errored packet 10661 at time 318
Reenqueueing errored packet 15956 at time 320
Reenqueueing errored packet 10791 at time 321
Reenqueueing errored packet 12715 at time 324
Additional hops: 396
Set signal latency stall time: 6
Reenqueueing errored packet 6478 at time 327
Additional hops: 403
Set signal latency stall time: 14
Additional hops: 408
Set signal latency stall time: 10
Reenqueueing errored packet 13396 at time 333
Additional hops: 416
Set signal latency stall time: 16
Reenqueueing errored packet 10182 at time 343
Reenqueueing errored packet 7255 at time 343
Additional hops: 426
Set signal latency stall time: 20
Additional hops: 434
Set signal latency stall time: 16
Reenqueueing errored packet 6435 at time 359
Additional hops: 437
Set signal latency stall time: 6
Reenqueueing errored packet 6414 at time 365
Additional hops: 441
Set signal latency stall time: 8
Reenqueueing errored packet 19912 at time 368
Reenqueueing errored packet 8937 at time 370
Additional hops: 451
Set signal latency stall time: 20
Reenqueueing errored packet 19131 at time 375
Additional hops: 459
Set signal latency stall time: 16
Additional hops: 467
Set signal latency stall time: 16
Additional hops: 471
Set signal latency stall time: 8
Additional hops: 476
Set signal latency stall time: 10
Reenqueueing errored packet 7704 at time 392
Additional hops: 481
Set signal latency stall time: 10
Additional hops: 488
Set signal latency stall time: 14
Reenqueueing errored packet 5726 at time 395
Additional hops: 491
Set signal latency stall time: 6
Reenqueueing errored packet 16376 at time 399
Reenqueueing errored packet 12371 at time 400
Reenqueueing errored packet 15640 at time 402
Reenqueueing errored packet 16753 at time 403
Reenqueueing errored packet 14784 at time 403
Additional hops: 495
Set signal latency stall time: 8
Additional hops: 504
Set signal latency stall time: 18
Additional hops: 512
Set signal latency stall time: 16
Additional hops: 516
Set signal latency stall time: 8
Reenqueueing errored packet 8920 at time 409
Reenqueueing errored packet 13416 at time 413
Additional hops: 523
Set signal latency stall time: 14
Additional hops: 525
Set signal latency stall time: 4
Additional hops: 530
Set signal latency stall time: 10
Reenqueueing errored packet 10633 at time 417
Reenqueueing errored packet 23215 at time 418
Additional hops: 531
Set signal latency stall time: 2
Reenqueueing errored packet 11652 at time 423
Additional hops: 538
Set signal latency stall time: 14
Reenqueueing errored packet 10305 at time 424
Reenqueueing errored packet 23894 at time 425
Reenqueueing errored packet 14629 at time 427
Reenqueueing errored packet 9610 at time 428
Additional hops: 545
Set signal latency stall time: 14
Additional hops: 552
Set signal latency stall time: 14
Additional hops: 558
Set signal latency stall time: 12
Reenqueueing errored packet 16302 at time 438
Additional hops: 567
Set signal latency stall time: 18
Reenqueueing errored packet 16927 at time 443
Additional hops: 577
Set signal latency stall time: 20
Additional hops: 584
Set signal latency stall time: 14
Additional hops: 594
Set signal latency stall time: 20
Additional hops: 598
Set signal latency stall time: 8
Reenqueueing errored packet 12224 at time 447
Additional hops: 602
Set signal latency stall time: 8
Additional hops: 606
Set signal latency stall time: 8
Reenqueueing errored packet 13140 at time 450
Additional hops: 618
Set signal latency stall time: 24
Additional hops: 631
Set signal latency stall time: 26
Additional hops: 638
Set signal latency stall time: 14
Additional hops: 646
Set signal latency stall time: 16
Reenqueueing errored packet 14959 at time 455
Reenqueueing errored packet 14111 at time 456
Reenqueueing errored packet 20193 at time 458
Reenqueueing errored packet 8993 at time 458
Reenqueueing errored packet 15324 at time 459
Reenqueueing errored packet 8529 at time 464
Reenqueueing errored packet 8785 at time 465
Reenqueueing errored packet 9503 at time 466
Reenqueueing errored packet 10637 at time 468
Additional hops: 654
Set signal latency stall time: 16
Reenqueueing errored packet 6566 at time 475
Reenqueueing errored packet 5526 at time 477
Additional hops: 662
Set signal latency stall time: 16
Additional hops: 666
Set signal latency stall time: 8
Additional hops: 676
Set signal latency stall time: 20
Additional hops: 684
Set signal latency stall time: 16
Reenqueueing errored packet 18814 at time 491
Reenqueueing errored packet 26834 at time 492
Additional hops: 689
Set signal latency stall time: 10
Additional hops: 694
Set signal latency stall time: 10
Reenqueueing errored packet 15985 at time 496
Additional hops: 702
Set signal latency stall time: 16
Additional hops: 711
Set signal latency stall time: 18
Reenqueueing errored packet 20730 at time 501
Reenqueueing errored packet 20575 at time 504
Reenqueueing errored packet 13723 at time 505
Reenqueueing errored packet 23934 at time 506
Additional hops: 714
Set signal latency stall time: 6
Reenqueueing errored packet 15447 at time 513
Reenqueueing errored packet 28302 at time 514
Additional hops: 724
Set signal latency stall time: 20
Additional hops: 729
Set signal latency stall time: 10
Reenqueueing errored packet 15168 at time 519
Additional hops: 735
Set signal latency stall time: 12
Additional hops: 736
Set signal latency stall time: 2
Reenqueueing errored packet 29845 at time 528
Reenqueueing errored packet 19964 at time 528
Additional hops: 747
Set signal latency stall time: 22
Additional hops: 753
Set signal latency stall time: 12
Reenqueueing errored packet 15195 at time 534
Reenqueueing errored packet 10404 at time 538
Reenqueueing errored packet 22804 at time 545
Additional hops: 756
Set signal latency stall time: 6
Reenqueueing errored packet 30366 at time 553
Reenqueueing errored packet 10160 at time 553
Additional hops: 760
Set signal latency stall time: 8
Additional hops: 768
Set signal latency stall time: 16
Reenqueueing errored packet 23267 at time 567
Additional hops: 775
Set signal latency stall time: 14
Additional hops: 782
Set signal latency stall time: 14
Reenqueueing errored packet 12139 at time 583
Reenqueueing errored packet 14406 at time 590
Additional hops: 789
Set signal latency stall time: 14
Reenqueueing errored packet 20424 at time 591
Additional hops: 794
Set signal latency stall time: 10
Additional hops: 798
Set signal latency stall time: 8
Additional hops: 809
Set signal latency stall time: 22
Reenqueueing errored packet 23742 at time 604
Reenqueueing errored packet 14385 at time 605
Reenqueueing errored packet 23297 at time 607
Additional hops: 816
Set signal latency stall time: 14
Additional hops: 827
Set signal latency stall time: 22
Additional hops: 831
Set signal latency stall time: 8
Additional hops: 836
Set signal latency stall time: 10
Reenqueueing errored packet 18644 at time 624
Reenqueueing errored packet 9070 at time 624
Reenqueueing errored packet 23944 at time 627
Additional hops: 842
Set signal latency stall time: 12
Reenqueueing errored packet 17759 at time 633
Additional hops: 848
Set signal latency stall time: 12
Reenqueueing errored packet 9765 at time 639
Reenqueueing errored packet 22733 at time 642
Additional hops: 850
Set signal latency stall time: 4
Additional hops: 855
Set signal latency stall time: 10
Additional hops: 859
Set signal latency stall time: 8
Reenqueueing errored packet 36413 at time 647
Reenqueueing errored packet 24777 at time 650
Reenqueueing errored packet 33261 at time 654
Reenqueueing errored packet 20934 at time 655
Additional hops: 865
Set signal latency stall time: 12
Additional hops: 873
Set signal latency stall time: 16
Additional hops: 879
Set signal latency stall time: 12
Additional hops: 884
Set signal latency stall time: 10
Additional hops: 897
Set signal latency stall time: 26
Additional hops: 908
Set signal latency stall time: 22
Reenqueueing errored packet 24222 at time 671
Reenqueueing errored packet 24624 at time 675
Reenqueueing errored packet 25207 at time 675
Reenqueueing errored packet 18466 at time 678
Additional hops: 922
Set signal latency stall time: 28
Additional hops: 929
Set signal latency stall time: 14
Additional hops: 934
Set signal latency stall time: 10
Additional hops: 942
Set signal latency stall time: 16
Reenqueueing errored packet 12864 at time 691
Reenqueueing errored packet 28834 at time 693
Reenqueueing errored packet 11756 at time 694
Reenqueueing errored packet 15376 at time 697
Additional hops: 953
Set signal latency stall time: 22
Additional hops: 964
Set signal latency stall time: 22
Reenqueueing errored packet 15311 at time 704
Additional hops: 967
Set signal latency stall time: 6
Additional hops: 976
Set signal latency stall time: 18
Reenqueueing errored packet 16302 at time 709
Additional hops: 977
Set signal latency stall time: 2
Reenqueueing errored packet 35828 at time 712
Reenqueueing errored packet 40522 at time 714
Additional hops: 987
Set signal latency stall time: 20
Additional hops: 999
Set signal latency stall time: 24
Reenqueueing errored packet 16926 at time 720
Reenqueueing errored packet 16569 at time 724
Reenqueueing errored packet 18655 at time 725
Additional hops: 1003
Set signal latency stall time: 8
Additional hops: 1009
Set signal latency stall time: 12
Additional hops: 1011
Set signal latency stall time: 4
Additional hops: 1021
Set signal latency stall time: 20
Reenqueueing errored packet 41460 at time 735
Additional hops: 1027
Set signal latency stall time: 12
Reenqueueing errored packet 39328 at time 736
Reenqueueing errored packet 12698 at time 736
Reenqueueing errored packet 29699 at time 741
Reenqueueing errored packet 9637 at time 743
Reenqueueing errored packet 26303 at time 748
Reenqueueing errored packet 15586 at time 752
Additional hops: 1035
Set signal latency stall time: 16
Additional hops: 1044
Set signal latency stall time: 18
Additional hops: 1053
Set signal latency stall time: 18
Additional hops: 1055
Set signal latency stall time: 4
Additional hops: 1060
Set signal latency stall time: 10
Additional hops: 1068
Set signal latency stall time: 16
Additional hops: 1070
Set signal latency stall time: 4
Reenqueueing errored packet 43331 at time 769
Reenqueueing errored packet 34109 at time 770
Additional hops: 1073
Set signal latency stall time: 6
Reenqueueing errored packet 24889 at time 772
Reenqueueing errored packet 37663 at time 773
Reenqueueing errored packet 23372 at time 775
Reenqueueing errored packet 19555 at time 776
Additional hops: 1082
Set signal latency stall time: 18
Reenqueueing errored packet 43584 at time 777
Additional hops: 1088
Set signal latency stall time: 12
Reenqueueing errored packet 21294 at time 784
Reenqueueing errored packet 35881 at time 790
Additional hops: 1091
Set signal latency stall time: 6
Additional hops: 1098
Set signal latency stall time: 14
Reenqueueing errored packet 12657 at time 795
Reenqueueing errored packet 32470 at time 798
Additional hops: 1106
Set signal latency stall time: 16
Additional hops: 1115
Set signal latency stall time: 18
Additional hops: 1122
Set signal latency stall time: 14
Additional hops: 1131
Set signal latency stall time: 18
Reenqueueing errored packet 40604 at time 809
Reenqueueing errored packet 15970 at time 815
Reenqueueing errored packet 16535 at time 817
Reenqueueing errored packet 25449 at time 818
Reenqueueing errored packet 13733 at time 822
Additional hops: 1140
Set signal latency stall time: 18
Additional hops: 1147
Set signal latency stall time: 14
Additional hops: 1152
Set signal latency stall time: 10
Additional hops: 1156
Set signal latency stall time: 8
Additional hops: 1163
Set signal latency stall time: 14
Reenqueueing errored packet 32546 at time 842
Reenqueueing errored packet 33300 at time 843
Reenqueueing errored packet 41808 at time 846
Reenqueueing errored packet 36073 at time 847
Additional hops: 1166
Set signal latency stall time: 6
Additional hops: 1172
Set signal latency stall time: 12
Additional hops: 1180
Set signal latency stall time: 16
Reenqueueing errored packet 31985 at time 855
Additional hops: 1188
Set signal latency stall time: 16
Reenqueueing errored packet 35163 at time 856
Additional hops: 1191
Set signal latency stall time: 6
Reenqueueing errored packet 33854 at time 865
Reenqueueing errored packet 48755 at time 867
Reenqueueing errored packet 31960 at time 869
Additional hops: 1200
Set signal latency stall time: 18
Reenqueueing errored packet 31952 at time 872
Additional hops: 1204
Set signal latency stall time: 8
Additional hops: 1210
Set signal latency stall time: 12
Additional hops: 1215
Set signal latency stall time: 10
Reenqueueing errored packet 43360 at time 887
Reenqueueing errored packet 19424 at time 889
Additional hops: 1220
Set signal latency stall time: 10
Additional hops: 1229
Set signal latency stall time: 18
Reenqueueing errored packet 30215 at time 893
Reenqueueing errored packet 35456 at time 893
Additional hops: 1235
Set signal latency stall time: 12
Reenqueueing errored packet 26930 at time 901
Additional hops: 1244
Set signal latency stall time: 18
Reenqueueing errored packet 26629 at time 909
Reenqueueing errored packet 34347 at time 912
Additional hops: 1251
Set signal latency stall time: 14
Additional hops: 1259
Set signal latency stall time: 16
Reenqueueing errored packet 24647 at time 920
Additional hops: 1269
Set signal latency stall time: 20
Reenqueueing errored packet 33589 at time 928
Additional hops: 1270
Set signal latency stall time: 2
Additional hops: 1278
Set signal latency stall time: 16
Reenqueueing errored packet 53083 at time 933
Reenqueueing errored packet 32502 at time 935
Additional hops: 1283
Set signal latency stall time: 10
Additional hops: 1289
Set signal latency stall time: 12
Additional hops: 1293
Set signal latency stall time: 8
Reenqueueing errored packet 32530 at time 945
Reenqueueing errored packet 21118 at time 947
Additional hops: 1297
Set signal latency stall time: 8
Additional hops: 1299
Set signal latency stall time: 4
Reenqueueing errored packet 53024 at time 952
Reenqueueing errored packet 35152 at time 954
Reenqueueing errored packet 49035 at time 955
Reenqueueing errored packet 35055 at time 956
Reenqueueing errored packet 53472 at time 958
Additional hops: 1303
Set signal latency stall time: 8
Reenqueueing errored packet 40149 at time 969
Additional hops: 1310
Set signal latency stall time: 14
Additional hops: 1318
Set signal latency stall time: 16
Additional hops: 1324
Set signal latency stall time: 12
Additional hops: 1335
Set signal latency stall time: 22
Reenqueueing errored packet 47366 at time 985
Reenqueueing errored packet 38739 at time 986
Additional hops: 1344
Set signal latency stall time: 18
Reenqueueing errored packet 19144 at time 988
Additional hops: 1347
Set signal latency stall time: 6
Additional hops: 1354
Set signal latency stall time: 14
Reenqueueing errored packet 45019 at time 999
Reenqueueing errored packet 14725 at time 1000
Reenqueueing errored packet 21491 at time 1006
Additional hops: 1359
Set signal latency stall time: 10
Reenqueueing errored packet 38279 at time 1008
Additional hops: 1362
Set signal latency stall time: 6
Additional hops: 1371
Set signal latency stall time: 18
Reenqueueing errored packet 57193 at time 1016
Additional hops: 1376
Set signal latency stall time: 10
Additional hops: 1386
Set signal latency stall time: 20
Reenqueueing errored packet 46541 at time 1018
Additional hops: 1398
Set signal latency stall time: 24
Additional hops: 1402
Set signal latency stall time: 8
Reenqueueing errored packet 51934 at time 1027
Reenqueueing errored packet 25369 at time 1031
Additional hops: 1415
Set signal latency stall time: 26
Reenqueueing errored packet 58076 at time 1034
Additional hops: 1419
Set signal latency stall time: 8
Reenqueueing errored packet 19309 at time 1038
Additional hops: 1424
Set signal latency stall time: 10
Additional hops: 1434
Set signal latency stall time: 20
Reenqueueing errored packet 44851 at time 1044
Reenqueueing errored packet 16933 at time 1045
Additional hops: 1443
Set signal latency stall time: 18
Reenqueueing errored packet 37387 at time 1053
Additional hops: 1453
Set signal latency stall time: 20
Reenqueueing errored packet 13434 at time 1058
Additional hops: 1461
Set signal latency stall time: 16
Reenqueueing errored packet 28984 at time 1063
Additional hops: 1470
Set signal latency stall time: 18
Reenqueueing errored packet 24680 at time 1071
Additional hops: 1477
Set signal latency stall time: 14
Reenqueueing errored packet 26188 at time 1075
Reenqueueing errored packet 41716 at time 1076
Additional hops: 1482
Set signal latency stall time: 10
Additional hops: 1486
Set signal latency stall time: 8
Additional hops: 1489
Set signal latency stall time: 6
Additional hops: 1495
Set signal latency stall time: 12
Reenqueueing errored packet 31388 at time 1086
Reenqueueing errored packet 56391 at time 1087
Reenqueueing errored packet 30527 at time 1087
Additional hops: 1500
Set signal latency stall time: 10
Reenqueueing errored packet 35436 at time 1088
Reenqueueing errored packet 43458 at time 1089
Additional hops: 1502
Set signal latency stall time: 4
Reenqueueing errored packet 30431 at time 1096
Additional hops: 1506
Set signal latency stall time: 8
Reenqueueing errored packet 50214 at time 1098
Reenqueueing errored packet 62364 at time 1099
Additional hops: 1509
Set signal latency stall time: 6
Reenqueueing errored packet 61345 at time 1106
Reenqueueing errored packet 62360 at time 1111
Additional hops: 1518
Set signal latency stall time: 18
Additional hops: 1527
Set signal latency stall time: 18
Additional hops: 1533
Set signal latency stall time: 12
Additional hops: 1541
Set signal latency stall time: 16
Additional hops: 1547
Set signal latency stall time: 12
Reenqueueing errored packet 42757 at time 1131
Additional hops: 1555
Set signal latency stall time: 16
Reenqueueing errored packet 26201 at time 1132
Reenqueueing errored packet 17416 at time 1132
Reenqueueing errored packet 31711 at time 1137
Reenqueueing errored packet 32548 at time 1142
Reenqueueing errored packet 26671 at time 1148
Additional hops: 1561
Set signal latency stall time: 12
Additional hops: 1565
Set signal latency stall time: 8
Additional hops: 1577
Set signal latency stall time: 24
Reenqueueing errored packet 36628 at time 1166
Reenqueueing errored packet 33249 at time 1166
Additional hops: 1586
Set signal latency stall time: 18
Reenqueueing errored packet 20199 at time 1184
Additional hops: 1593
Set signal latency stall time: 14
Additional hops: 1599
Set signal latency stall time: 12
Reenqueueing errored packet 24831 at time 1192
Additional hops: 1605
Set signal latency stall time: 12
Additional hops: 1609
Set signal latency stall time: 8
Reenqueueing errored packet 26684 at time 1199
Reenqueueing errored packet 32341 at time 1200
Reenqueueing errored packet 65701 at time 1207
Reenqueueing errored packet 57495 at time 1208
Additional hops: 1619
Set signal latency stall time: 20
Additional hops: 1622
Set signal latency stall time: 6
Reenqueueing errored packet 29930 at time 1230
Additional hops: 1627
Set signal latency stall time: 10
Reenqueueing errored packet 35643 at time 1235
Additional hops: 1637
Set signal latency stall time: 20
Additional hops: 1642
Set signal latency stall time: 10
Reenqueueing errored packet 63303 at time 1241
Additional hops: 1651
Set signal latency stall time: 18
Additional hops: 1659
Set signal latency stall time: 16
Reenqueueing errored packet 38244 at time 1248
Additional hops: 1669
Set signal latency stall time: 20
Reenqueueing errored packet 21963 at time 1258
Reenqueueing errored packet 40857 at time 1261
Reenqueueing errored packet 28003 at time 1262
Additional hops: 1676
Set signal latency stall time: 14
Reenqueueing errored packet 44509 at time 1276
Additional hops: 1683
Set signal latency stall time: 14
Reenqueueing errored packet 26430 at time 1278
Additional hops: 1689
Set signal latency stall time: 12
Additional hops: 1696
Set signal latency stall time: 14
Additional hops: 1700
Set signal latency stall time: 8
Reenqueueing errored packet 55847 at time 1291
Reenqueueing errored packet 32755 at time 1291
Additional hops: 1706
Set signal latency stall time: 12
Reenqueueing errored packet 66881 at time 1296
Additional hops: 1711
Set signal latency stall time: 10
Additional hops: 1719
Set signal latency stall time: 16
Additional hops: 1728
Set signal latency stall time: 18
Reenqueueing errored packet 28774 at time 1300
Additional hops: 1735
Set signal latency stall time: 14
Additional hops: 1739
Set signal latency stall time: 8
Reenqueueing errored packet 32595 at time 1305
Reenqueueing errored packet 55126 at time 1307
Reenqueueing errored packet 72251 at time 1310
Additional hops: 1750
Set signal latency stall time: 22
Reenqueueing errored packet 26732 at time 1315
Additional hops: 1759
Set signal latency stall time: 18
Additional hops: 1767
Set signal latency stall time: 16
Reenqueueing errored packet 26617 at time 1316
Additional hops: 1773
Set signal latency stall time: 12
Reenqueueing errored packet 46656 at time 1318
Additional hops: 1777
Set signal latency stall time: 8
Additional hops: 1782
Set signal latency stall time: 10
Additional hops: 1793
Set signal latency stall time: 22
Additional hops: 1801
Set signal latency stall time: 16
Reenqueueing errored packet 73980 at time 1327
Additional hops: 1808
Set signal latency stall time: 14
Reenqueueing errored packet 39725 at time 1330
Reenqueueing errored packet 44676 at time 1332
Additional hops: 1816
Set signal latency stall time: 16
Reenqueueing errored packet 28227 at time 1334
Additional hops: 1822
Set signal latency stall time: 12
Reenqueueing errored packet 54858 at time 1335
Additional hops: 1826
Set signal latency stall time: 8
Additional hops: 1833
Set signal latency stall time: 14
Reenqueueing errored packet 41386 at time 1342
Additional hops: 1840
Set signal latency stall time: 14
Reenqueueing errored packet 34156 at time 1343
Additional hops: 1849
Set signal latency stall time: 18
Additional hops: 1854
Set signal latency stall time: 10
Reenqueueing errored packet 69075 at time 1347
Reenqueueing errored packet 41197 at time 1347
Reenqueueing errored packet 20483 at time 1348
Reenqueueing errored packet 26774 at time 1350
Additional hops: 1863
Set signal latency stall time: 18
Reenqueueing errored packet 53427 at time 1355
Reenqueueing errored packet 41671 at time 1355
Reenqueueing errored packet 30026 at time 1357
Additional hops: 1876
Set signal latency stall time: 26
Additional hops: 1884
Set signal latency stall time: 16
Reenqueueing errored packet 37051 at time 1363
Additional hops: 1886
Set signal latency stall time: 4
Reenqueueing errored packet 57177 at time 1369
Reenqueueing errored packet 78014 at time 1371
Additional hops: 1897
Set signal latency stall time: 22
Reenqueueing errored packet 49360 at time 1376
Additional hops: 1900
Set signal latency stall time: 6
Additional hops: 1906
Set signal latency stall time: 12
Additional hops: 1913
Set signal latency stall time: 14
Reenqueueing errored packet 45382 at time 1383
Additional hops: 1919
Set signal latency stall time: 12
Reenqueueing errored packet 22438 at time 1384
Reenqueueing errored packet 28536 at time 1390
Additional hops: 1924
Set signal latency stall time: 10
Additional hops: 1936
Set signal latency stall time: 24
Reenqueueing errored packet 25100 at time 1395
Reenqueueing errored packet 58173 at time 1396
Reenqueueing errored packet 41093 at time 1396
Additional hops: 1943
Set signal latency stall time: 14
Additional hops: 1948
Set signal latency stall time: 10
Reenqueueing errored packet 59777 at time 1401
Additional hops: 1950
Set signal latency stall time: 4
Reenqueueing errored packet 80120 at time 1406
Additional hops: 1953
Set signal latency stall time: 6
Reenqueueing errored packet 62022 at time 1410
Reenqueueing errored packet 79434 at time 1414
Reenqueueing errored packet 53533 at time 1414
Additional hops: 1964
Set signal latency stall time: 22
Reenqueueing errored packet 19697 at time 1417
Additional hops: 1967
Set signal latency stall time: 6
Additional hops: 1975
Set signal latency stall time: 16
Additional hops: 1978
Set signal latency stall time: 6
Additional hops: 1983
Set signal latency stall time: 10
Reenqueueing errored packet 79966 at time 1426
Reenqueueing errored packet 75176 at time 1428
Reenqueueing errored packet 68850 at time 1434
Reenqueueing errored packet 20555 at time 1437
Additional hops: 1989
Set signal latency stall time: 12
Reenqueueing errored packet 49213 at time 1438
Additional hops: 1995
Set signal latency stall time: 12
Additional hops: 2003
Set signal latency stall time: 16
Additional hops: 2009
Set signal latency stall time: 12
Additional hops: 2015
Set signal latency stall time: 12
Additional hops: 2018
Set signal latency stall time: 6
Reenqueueing errored packet 63687 at time 1450
Reenqueueing errored packet 81743 at time 1453
Reenqueueing errored packet 73433 at time 1453
Reenqueueing errored packet 32798 at time 1455
Additional hops: 2023
Set signal latency stall time: 10
Reenqueueing errored packet 56894 at time 1456
Reenqueueing errored packet 54764 at time 1457
Additional hops: 2029
Set signal latency stall time: 12
Reenqueueing errored packet 57175 at time 1466
Additional hops: 2039
Set signal latency stall time: 20
Additional hops: 2047
Set signal latency stall time: 16
Additional hops: 2048
Set signal latency stall time: 2
Reenqueueing errored packet 84223 at time 1472
Reenqueueing errored packet 78500 at time 1472
Additional hops: 2054
Set signal latency stall time: 12
Additional hops: 2063
Set signal latency stall time: 18
Additional hops: 2070
Set signal latency stall time: 14
Additional hops: 2074
Set signal latency stall time: 8
Reenqueueing errored packet 30803 at time 1485
Additional hops: 2083
Set signal latency stall time: 18
Reenqueueing errored packet 45704 at time 1487
Reenqueueing errored packet 21980 at time 1487
Additional hops: 2090
Set signal latency stall time: 14
Reenqueueing errored packet 60988 at time 1491
Additional hops: 2099
Set signal latency stall time: 18
Reenqueueing errored packet 74757 at time 1493
Reenqueueing errored packet 37415 at time 1494
Additional hops: 2106
Set signal latency stall time: 14
Additional hops: 2116
Set signal latency stall time: 20
Additional hops: 2123
Set signal latency stall time: 14
Reenqueueing errored packet 39393 at time 1504
Reenqueueing errored packet 54795 at time 1505
Additional hops: 2129
Set signal latency stall time: 12
Additional hops: 2137
Set signal latency stall time: 16
Reenqueueing errored packet 29715 at time 1511
Additional hops: 2144
Set signal latency stall time: 14
Reenqueueing errored packet 44594 at time 1513
Additional hops: 2153
Set signal latency stall time: 18
Reenqueueing errored packet 61223 at time 1514
Additional hops: 2161
Set signal latency stall time: 16
Reenqueueing errored packet 26152 at time 1519
Reenqueueing errored packet 59435 at time 1521
Additional hops: 2168
Set signal latency stall time: 14
Additional hops: 2173
Set signal latency stall time: 10
Reenqueueing errored packet 33244 at time 1526
Reenqueueing errored packet 36792 at time 1527
Additional hops: 2179
Set signal latency stall time: 12
Reenqueueing errored packet 30162 at time 1532
Additional hops: 2187
Set signal latency stall time: 16
Reenqueueing errored packet 42541 at time 1535
Reenqueueing errored packet 73516 at time 1536
Additional hops: 2190
Set signal latency stall time: 6
Additional hops: 2200
Set signal latency stall time: 20
Reenqueueing errored packet 30024 at time 1540
Additional hops: 2207
Set signal latency stall time: 14
Reenqueueing errored packet 44935 at time 1541
Additional hops: 2210
Set signal latency stall time: 6
Additional hops: 2217
Set signal latency stall time: 14
Reenqueueing errored packet 63468 at time 1546
Additional hops: 2222
Set signal latency stall time: 10
Reenqueueing errored packet 85395 at time 1550
Reenqueueing errored packet 42899 at time 1550
Additional hops: 2232
Set signal latency stall time: 20
Reenqueueing errored packet 43350 at time 1555
Reenqueueing errored packet 57009 at time 1559
Reenqueueing errored packet 39770 at time 1560
Reenqueueing errored packet 41674 at time 1560
Additional hops: 2240
Set signal latency stall time: 16
Reenqueueing errored packet 34892 at time 1572
Reenqueueing errored packet 56363 at time 1579
Additional hops: 2243
Set signal latency stall time: 6
Additional hops: 2251
Set signal latency stall time: 16
Additional hops: 2253
Set signal latency stall time: 4
Reenqueueing errored packet 81147 at time 1588
Reenqueueing errored packet 86882 at time 1588
Reenqueueing errored packet 46900 at time 1599
Additional hops: 2261
Set signal latency stall time: 16
Additional hops: 2266
Set signal latency stall time: 10
Additional hops: 2271
Set signal latency stall time: 10
Additional hops: 2282
Set signal latency stall time: 22
Reenqueueing errored packet 36979 at time 1621
Reenqueueing errored packet 49284 at time 1622
Additional hops: 2290
Set signal latency stall time: 16
Reenqueueing errored packet 45406 at time 1625
Additional hops: 2299
Set signal latency stall time: 18
Additional hops: 2311
Set signal latency stall time: 24
Additional hops: 2315
Set signal latency stall time: 8
Additional hops: 2318
Set signal latency stall time: 6
Additional hops: 2324
Set signal latency stall time: 12
Additional hops: 2331
Set signal latency stall time: 14
Additional hops: 2335
Set signal latency stall time: 8
Reenqueueing errored packet 28215 at time 1638
Additional hops: 2346
Set signal latency stall time: 22
Additional hops: 2354
Set signal latency stall time: 16
Reenqueueing errored packet 93218 at time 1641
Reenqueueing errored packet 60822 at time 1641
Reenqueueing errored packet 34412 at time 1641
Reenqueueing errored packet 63412 at time 1646
Reenqueueing errored packet 55806 at time 1647
Additional hops: 2363
Set signal latency stall time: 18
Reenqueueing errored packet 52191 at time 1648
Additional hops: 2366
Set signal latency stall time: 6
Reenqueueing errored packet 38596 at time 1652
Reenqueueing errored packet 33453 at time 1655
Reenqueueing errored packet 50825 at time 1656
Reenqueueing errored packet 86049 at time 1657
Additional hops: 2375
Set signal latency stall time: 18
Additional hops: 2383
Set signal latency stall time: 16
Reenqueueing errored packet 26016 at time 1661
Additional hops: 2386
Set signal latency stall time: 6
Reenqueueing errored packet 38648 at time 1666
Additional hops: 2397
Set signal latency stall time: 22
Reenqueueing errored packet 84667 at time 1671
Additional hops: 2403
Set signal latency stall time: 12
Reenqueueing errored packet 37033 at time 1675
Additional hops: 2410
Set signal latency stall time: 14
Reenqueueing errored packet 26959 at time 1676
Additional hops: 2416
Set signal latency stall time: 12
Reenqueueing errored packet 72656 at time 1687
Reenqueueing errored packet 36825 at time 1690
Reenqueueing errored packet 25072 at time 1691
Additional hops: 2421
Set signal latency stall time: 10
Reenqueueing errored packet 33097 at time 1699
Additional hops: 2434
Set signal latency stall time: 26
Additional hops: 2439
Set signal latency stall time: 10
Reenqueueing errored packet 83896 at time 1708
Additional hops: 2445
Set signal latency stall time: 12
Reenqueueing errored packet 54581 at time 1712
Additional hops: 2453
Set signal latency stall time: 16
Additional hops: 2460
Set signal latency stall time: 14
Reenqueueing errored packet 47619 at time 1724
Reenqueueing errored packet 25847 at time 1727
Additional hops: 2463
Set signal latency stall time: 6
Additional hops: 2468
Set signal latency stall time: 10
Reenqueueing errored packet 63833 at time 1735
Reenqueueing errored packet 83079 at time 1738
Additional hops: 2470
Set signal latency stall time: 4
Reenqueueing errored packet 50793 at time 1739
Reenqueueing errored packet 64137 at time 1743
Reenqueueing errored packet 55048 at time 1745
Additional hops: 2478
Set signal latency stall time: 16
Additional hops: 2486
Set signal latency stall time: 16
Additional hops: 2494
Set signal latency stall time: 16
Additional hops: 2502
Set signal latency stall time: 16
Additional hops: 2511
Set signal latency stall time: 18
Additional hops: 2518
Set signal latency stall time: 14
Reenqueueing errored packet 40228 at time 1775
Reenqueueing errored packet 47200 at time 1778
Additional hops: 2524
Set signal latency stall time: 12
Reenqueueing errored packet 67365 at time 1779
Reenqueueing errored packet 50340 at time 1781
Reenqueueing errored packet 48253 at time 1786
Additional hops: 2533
Set signal latency stall time: 18
Additional hops: 2539
Set signal latency stall time: 12
Reenqueueing errored packet 39641 at time 1788
Reenqueueing errored packet 60143 at time 1791
Additional hops: 2547
Set signal latency stall time: 16
Additional hops: 2556
Set signal latency stall time: 18
Reenqueueing errored packet 60708 at time 1800
Additional hops: 2562
Set signal latency stall time: 12
Reenqueueing errored packet 39748 at time 1806
Reenqueueing errored packet 82603 at time 1808
Reenqueueing errored packet 53375 at time 1812
Reenqueueing errored packet 72694 at time 1816
Additional hops: 2569
Set signal latency stall time: 14
Additional hops: 2572
Set signal latency stall time: 6
Additional hops: 2584
Set signal latency stall time: 24
Reenqueueing errored packet 85077 at time 1831
Reenqueueing errored packet 58736 at time 1833
Additional hops: 2592
Set signal latency stall time: 16
Additional hops: 2597
Set signal latency stall time: 10
Reenqueueing errored packet 55263 at time 1844
Additional hops: 2603
Set signal latency stall time: 12
Additional hops: 2610
Set signal latency stall time: 14
Reenqueueing errored packet 53113 at time 1850
Additional hops: 2622
Set signal latency stall time: 24
Reenqueueing errored packet 53899 at time 1855
Additional hops: 2636
Set signal latency stall time: 28
Additional hops: 2641
Set signal latency stall time: 10
Reenqueueing errored packet 69894 at time 1857
Additional hops: 2644
Set signal latency stall time: 6
Additional hops: 2648
Set signal latency stall time: 8
Reenqueueing errored packet 41178 at time 1864
Reenqueueing errored packet 85398 at time 1865
Reenqueueing errored packet 75797 at time 1866
Additional hops: 2653
Set signal latency stall time: 10
Reenqueueing errored packet 89829 at time 1872
Additional hops: 2661
Set signal latency stall time: 16
Additional hops: 2673
Set signal latency stall time: 24
Additional hops: 2681
Set signal latency stall time: 16
Reenqueueing errored packet 26951 at time 1875
Reenqueueing errored packet 77674 at time 1877
Additional hops: 2684
Set signal latency stall time: 6
Additional hops: 2692
Set signal latency stall time: 16
Reenqueueing errored packet 25676 at time 1884
Additional hops: 2699
Set signal latency stall time: 14
Additional hops: 2702
Set signal latency stall time: 6
Reenqueueing errored packet 107506 at time 1887
Reenqueueing errored packet 47328 at time 1889
Additional hops: 2711
Set signal latency stall time: 18
Reenqueueing errored packet 35183 at time 1890
Reenqueueing errored packet 87255 at time 1892
Additional hops: 2723
Set signal latency stall time: 24
Reenqueueing errored packet 57021 at time 1898
Reenqueueing errored packet 33271 at time 1898
Reenqueueing errored packet 65617 at time 1899
Additional hops: 2731
Set signal latency stall time: 16
Additional hops: 2739
Set signal latency stall time: 16
Additional hops: 2746
Set signal latency stall time: 14
Reenqueueing errored packet 38776 at time 1908
Additional hops: 2753
Set signal latency stall time: 14
Additional hops: 2761
Set signal latency stall time: 16
Reenqueueing errored packet 65344 at time 1916
Reenqueueing errored packet 56715 at time 1920
Reenqueueing errored packet 66459 at time 1922
Additional hops: 2764
Set signal latency stall time: 6
Reenqueueing errored packet 58439 at time 1923
Reenqueueing errored packet 77660 at time 1924
Additional hops: 2768
Set signal latency stall time: 8
Additional hops: 2774
Set signal latency stall time: 12
Reenqueueing errored packet 82072 at time 1927
Reenqueueing errored packet 72093 at time 1929
Reenqueueing errored packet 79212 at time 1934
Additional hops: 2783
Set signal latency stall time: 18
Reenqueueing errored packet 46077 at time 1939
Additional hops: 2788
Set signal latency stall time: 10
Additional hops: 2794
Set signal latency stall time: 12
Additional hops: 2799
Set signal latency stall time: 10
Additional hops: 2804
Set signal latency stall time: 10
Additional hops: 2809
Set signal latency stall time: 10
Additional hops: 2818
Set signal latency stall time: 18
Reenqueueing errored packet 70019 at time 1950
Reenqueueing errored packet 54857 at time 1952
Reenqueueing errored packet 41353 at time 1952
Reenqueueing errored packet 78306 at time 1954
Additional hops: 2825
Set signal latency stall time: 14
Reenqueueing errored packet 94848 at time 1955
Reenqueueing errored packet 72056 at time 1957
Additional hops: 2835
Set signal latency stall time: 20
Additional hops: 2841
Set signal latency stall time: 12
Additional hops: 2849
Set signal latency stall time: 16
Additional hops: 2853
Set signal latency stall time: 8
Reenqueueing errored packet 49402 at time 1967
Additional hops: 2861
Set signal latency stall time: 16
Reenqueueing errored packet 74355 at time 1969
Reenqueueing errored packet 96805 at time 1973
Reenqueueing errored packet 67904 at time 1974
Reenqueueing errored packet 60594 at time 1978
Additional hops: 2866
Set signal latency stall time: 10
Reenqueueing errored packet 55564 at time 1981
Additional hops: 2871
Set signal latency stall time: 10
Additional hops: 2878
Set signal latency stall time: 14
Reenqueueing errored packet 74710 at time 1985
Additional hops: 2886
Set signal latency stall time: 16
Additional hops: 2893
Set signal latency stall time: 14
Reenqueueing errored packet 68637 at time 1990
Additional hops: 2901
Set signal latency stall time: 16
Reenqueueing errored packet 80553 at time 1992
Additional hops: 2902
Set signal latency stall time: 2
Reenqueueing errored packet 114524 at time 1998
Additional hops: 2907
Set signal latency stall time: 10
Reenqueueing errored packet 42941 at time 1999
Additional hops: 2912
Set signal latency stall time: 10
Additional hops: 2916
Set signal latency stall time: 8
Reenqueueing errored packet 60065 at time 2002
Reenqueueing errored packet 71874 at time 2002
Additional hops: 2923
Set signal latency stall time: 14
Additional hops: 2937
Set signal latency stall time: 28
Additional hops: 2941
Set signal latency stall time: 8
Additional hops: 2945
Set signal latency stall time: 8
Reenqueueing errored packet 59850 at time 2008
Reenqueueing errored packet 78269 at time 2009
Reenqueueing errored packet 55097 at time 2010
Reenqueueing errored packet 84045 at time 2010
Additional hops: 2948
Set signal latency stall time: 6
Additional hops: 2951
Set signal latency stall time: 6
Additional hops: 2955
Set signal latency stall time: 8
Reenqueueing errored packet 103036 at time 2015
Reenqueueing errored packet 85132 at time 2015
Additional hops: 2963
Set signal latency stall time: 16
Reenqueueing errored packet 85262 at time 2018
Reenqueueing errored packet 86418 at time 2019
Reenqueueing errored packet 80105 at time 2019
Additional hops: 2971
Set signal latency stall time: 16
Reenqueueing errored packet 93269 at time 2021
Additional hops: 2979
Set signal latency stall time: 16
Additional hops: 2988
Set signal latency stall time: 18
Reenqueueing errored packet 77771 at time 2033
Reenqueueing errored packet 32768 at time 2033
Additional hops: 2994
Set signal latency stall time: 12
Additional hops: 3006
Set signal latency stall time: 24
Additional hops: 3015
Set signal latency stall time: 18
Reenqueueing errored packet 72575 at time 2036
Reenqueueing errored packet 70446 at time 2042
Reenqueueing errored packet 80748 at time 2046
Additional hops: 3025
Set signal latency stall time: 20
Additional hops: 3038
Set signal latency stall time: 26
Additional hops: 3041
Set signal latency stall time: 6
Reenqueueing errored packet 78283 at time 2050
Additional hops: 3046
Set signal latency stall time: 10
Reenqueueing errored packet 63721 at time 2054
Additional hops: 3054
Set signal latency stall time: 16
Reenqueueing errored packet 101582 at time 2056
Additional hops: 3062
Set signal latency stall time: 16
Reenqueueing errored packet 35734 at time 2059
Reenqueueing errored packet 78609 at time 2062
Reenqueueing errored packet 31517 at time 2067
Additional hops: 3070
Set signal latency stall time: 16
Additional hops: 3083
Set signal latency stall time: 26
Reenqueueing errored packet 94193 at time 2072
Reenqueueing errored packet 35955 at time 2074
Reenqueueing errored packet 32643 at time 2075
Additional hops: 3094
Set signal latency stall time: 22
Additional hops: 3104
Set signal latency stall time: 20
Reenqueueing errored packet 51436 at time 2086
Additional hops: 3120
Set signal latency stall time: 32
Additional hops: 3130
Set signal latency stall time: 20
Reenqueueing errored packet 36146 at time 2096
Additional hops: 3137
Set signal latency stall time: 14
Additional hops: 3143
Set signal latency stall time: 12
Additional hops: 3149
Set signal latency stall time: 12
Additional hops: 3156
Set signal latency stall time: 14
Reenqueueing errored packet 35683 at time 2101
Reenqueueing errored packet 61112 at time 2102
Additional hops: 3161
Set signal latency stall time: 10
Additional hops: 3165
Set signal latency stall time: 8
Additional hops: 3175
Set signal latency stall time: 20
Reenqueueing errored packet 87201 at time 2109
Reenqueueing errored packet 101232 at time 2110
Reenqueueing errored packet 65025 at time 2111
Reenqueueing errored packet 45883 at time 2112
Additional hops: 3181
Set signal latency stall time: 12
Reenqueueing errored packet 84896 at time 2113
Reenqueueing errored packet 82507 at time 2116
Reenqueueing errored packet 110333 at time 2116
Additional hops: 3185
Set signal latency stall time: 8
Reenqueueing errored packet 15970 at time 2120
Additional hops: 3194
Set signal latency stall time: 18
Additional hops: 3202
Set signal latency stall time: 16
Reenqueueing errored packet 71765 at time 2125
Reenqueueing errored packet 64136 at time 2127
Additional hops: 3205
Set signal latency stall time: 6
Reenqueueing errored packet 64869 at time 2129
Additional hops: 3211
Set signal latency stall time: 12
Additional hops: 3216
Set signal latency stall time: 10
Reenqueueing errored packet 99846 at time 2135
Reenqueueing errored packet 88013 at time 2139
Reenqueueing errored packet 89836 at time 2140
Reenqueueing errored packet 59754 at time 2142
Additional hops: 3223
Set signal latency stall time: 14
Reenqueueing errored packet 80562 at time 2143
Additional hops: 3228
Set signal latency stall time: 10
Additional hops: 3236
Set signal latency stall time: 16
Reenqueueing errored packet 62295 at time 2154
Additional hops: 3245
Set signal latency stall time: 18
Additional hops: 3254
Set signal latency stall time: 18
Reenqueueing errored packet 60563 at time 2157
Additional hops: 3259
Set signal latency stall time: 10
Additional hops: 3266
Set signal latency stall time: 14
Reenqueueing errored packet 54749 at time 2165
Reenqueueing errored packet 92348 at time 2168
Additional hops: 3273
Set signal latency stall time: 14
Reenqueueing errored packet 88452 at time 2173
Reenqueueing errored packet 54442 at time 2174
Reenqueueing errored packet 46440 at time 2175
Additional hops: 3278
Set signal latency stall time: 10
Additional hops: 3288
Set signal latency stall time: 20
Additional hops: 3294
Set signal latency stall time: 12
Additional hops: 3298
Set signal latency stall time: 8
Reenqueueing errored packet 58212 at time 2186
Reenqueueing errored packet 91756 at time 2190
Reenqueueing errored packet 116556 at time 2191
Additional hops: 3309
Set signal latency stall time: 22
Reenqueueing errored packet 94242 at time 2194
Additional hops: 3319
Set signal latency stall time: 20
Additional hops: 3323
Set signal latency stall time: 8
Reenqueueing errored packet 36356 at time 2200
Additional hops: 3325
Set signal latency stall time: 4
Additional hops: 3328
Set signal latency stall time: 6
Reenqueueing errored packet 117532 at time 2206
Additional hops: 3333
Set signal latency stall time: 10
Reenqueueing errored packet 115295 at time 2208
Additional hops: 3341
Set signal latency stall time: 16
Reenqueueing errored packet 104255 at time 2212
Additional hops: 3345
Set signal latency stall time: 8
Additional hops: 3353
Set signal latency stall time: 16
Reenqueueing errored packet 42352 at time 2214
Reenqueueing errored packet 61932 at time 2216
Reenqueueing errored packet 66009 at time 2218
Additional hops: 3357
Set signal latency stall time: 8
Reenqueueing errored packet 110587 at time 2221
Additional hops: 3363
Set signal latency stall time: 12
Reenqueueing errored packet 74691 at time 2226
Reenqueueing errored packet 91316 at time 2229
Reenqueueing errored packet 76562 at time 2230
Reenqueueing errored packet 86794 at time 2236
Additional hops: 3368
Set signal latency stall time: 10
Additional hops: 3376
Set signal latency stall time: 16
Reenqueueing errored packet 69229 at time 2247
Additional hops: 3383
Set signal latency stall time: 14
Additional hops: 3389
Set signal latency stall time: 12
Additional hops: 3398
Set signal latency stall time: 18
Reenqueueing errored packet 71711 at time 2260
Reenqueueing errored packet 96466 at time 2262
Reenqueueing errored packet 74523 at time 2262
Reenqueueing errored packet 89237 at time 2273
Additional hops: 3407
Set signal latency stall time: 18
Additional hops: 3414
Set signal latency stall time: 14
Additional hops: 3424
Set signal latency stall time: 20
Reenqueueing errored packet 48605 at time 2296
Additional hops: 3430
Set signal latency stall time: 12
Reenqueueing errored packet 51743 at time 2303
Additional hops: 3440
Set signal latency stall time: 20
Additional hops: 3444
Set signal latency stall time: 8
Additional hops: 3453
Set signal latency stall time: 18
Additional hops: 3457
Set signal latency stall time: 8
Additional hops: 3463
Set signal latency stall time: 12
Reenqueueing errored packet 119426 at time 2315
Reenqueueing errored packet 96360 at time 2315
Reenqueueing errored packet 72443 at time 2316
Additional hops: 3467
Set signal latency stall time: 8
Reenqueueing errored packet 91290 at time 2319
Additional hops: 3471
Set signal latency stall time: 8
Additional hops: 3480
Set signal latency stall time: 18
Additional hops: 3490
Set signal latency stall time: 20
Reenqueueing errored packet 70421 at time 2325
Reenqueueing errored packet 123833 at time 2326
Reenqueueing errored packet 47536 at time 2326
Reenqueueing errored packet 51641 at time 2326
Additional hops: 3495
Set signal latency stall time: 10
Additional hops: 3499
Set signal latency stall time: 8
Reenqueueing errored packet 97160 at time 2329
Additional hops: 3511
Set signal latency stall time: 24
Reenqueueing errored packet 98274 at time 2337
Reenqueueing errored packet 105663 at time 2337
Reenqueueing errored packet 65816 at time 2340
Reenqueueing errored packet 67558 at time 2344
Additional hops: 3521
Set signal latency stall time: 20
Additional hops: 3532
Set signal latency stall time: 22
Additional hops: 3538
Set signal latency stall time: 12
Reenqueueing errored packet 53488 at time 2355
Additional hops: 3547
Set signal latency stall time: 18
Reenqueueing errored packet 59595 at time 2361
Additional hops: 3554
Set signal latency stall time: 14
Reenqueueing errored packet 35788 at time 2367
Reenqueueing errored packet 41399 at time 2369
Additional hops: 3564
Set signal latency stall time: 20
Additional hops: 3572
Set signal latency stall time: 16
Reenqueueing errored packet 48961 at time 2377
Reenqueueing errored packet 67244 at time 2378
Additional hops: 3580
Set signal latency stall time: 16
Reenqueueing errored packet 49209 at time 2389
Reenqueueing errored packet 88534 at time 2390
Additional hops: 3583
Set signal latency stall time: 6
Additional hops: 3587
Set signal latency stall time: 8
Reenqueueing errored packet 108751 at time 2397
Additional hops: 3595
Set signal latency stall time: 16
Reenqueueing errored packet 96375 at time 2402
Additional hops: 3601
Set signal latency stall time: 12
Additional hops: 3604
Set signal latency stall time: 6
Reenqueueing errored packet 71709 at time 2403
Additional hops: 3611
Set signal latency stall time: 14
Additional hops: 3613
Set signal latency stall time: 4
Additional hops: 3623
Set signal latency stall time: 20
Reenqueueing errored packet 102731 at time 2409
Reenqueueing errored packet 128387 at time 2411
Reenqueueing errored packet 107129 at time 2415
Reenqueueing errored packet 99428 at time 2418
Additional hops: 3627
Set signal latency stall time: 8
Additional hops: 3635
Set signal latency stall time: 16
Reenqueueing errored packet 99660 at time 2420
Additional hops: 3641
Set signal latency stall time: 12
Additional hops: 3646
Set signal latency stall time: 10
Reenqueueing errored packet 125792 at time 2427
Additional hops: 3657
Set signal latency stall time: 22
Reenqueueing errored packet 72576 at time 2429
Additional hops: 3665
Set signal latency stall time: 16
Reenqueueing errored packet 72352 at time 2433
Reenqueueing errored packet 100523 at time 2434
Additional hops: 3671
Set signal latency stall time: 12
Additional hops: 3680
Set signal latency stall time: 18
Additional hops: 3685
Set signal latency stall time: 10
Reenqueueing errored packet 127277 at time 2449
Reenqueueing errored packet 69068 at time 2449
Additional hops: 3690
Set signal latency stall time: 10
Additional hops: 3701
Set signal latency stall time: 22
Additional hops: 3710
Set signal latency stall time: 18
Reenqueueing errored packet 44964 at time 2451
Reenqueueing errored packet 96962 at time 2455
Additional hops: 3719
Set signal latency stall time: 18
Additional hops: 3726
Set signal latency stall time: 14
Additional hops: 3728
Set signal latency stall time: 4
Reenqueueing errored packet 95247 at time 2460
Additional hops: 3734
Set signal latency stall time: 12
Additional hops: 3739
Set signal latency stall time: 10
Reenqueueing errored packet 60478 at time 2462
Reenqueueing errored packet 129294 at time 2463
Additional hops: 3746
Set signal latency stall time: 14
Reenqueueing errored packet 82911 at time 2471
Additional hops: 3753
Set signal latency stall time: 14
Reenqueueing errored packet 108499 at time 2472
Reenqueueing errored packet 102521 at time 2473
Reenqueueing errored packet 55070 at time 2474
Reenqueueing errored packet 55357 at time 2480
Reenqueueing errored packet 89849 at time 2486
Additional hops: 3762
Set signal latency stall time: 18
Additional hops: 3767
Set signal latency stall time: 10
Additional hops: 3771
Set signal latency stall time: 8
Reenqueueing errored packet 104825 at time 2508
Additional hops: 3776
Set signal latency stall time: 10
Reenqueueing errored packet 73781 at time 2512
Additional hops: 3783
Set signal latency stall time: 14
Additional hops: 3790
Set signal latency stall time: 14
Reenqueueing errored packet 64554 at time 2522
Additional hops: 3805
Set signal latency stall time: 30
Reenqueueing errored packet 76958 at time 2529
Reenqueueing errored packet 75013 at time 2533
Additional hops: 3807
Set signal latency stall time: 4
Additional hops: 3818
Set signal latency stall time: 22
Reenqueueing errored packet 108105 at time 2541
Additional hops: 3827
Set signal latency stall time: 18
Additional hops: 3833
Set signal latency stall time: 12
Additional hops: 3837
Set signal latency stall time: 8
Reenqueueing errored packet 37594 at time 2554
Reenqueueing errored packet 133315 at time 2556
Reenqueueing errored packet 106130 at time 2558
Reenqueueing errored packet 46657 at time 2560
Reenqueueing errored packet 52401 at time 2561
Additional hops: 3849
Set signal latency stall time: 24
Additional hops: 3852
Set signal latency stall time: 6
Additional hops: 3862
Set signal latency stall time: 20
Additional hops: 3865
Set signal latency stall time: 6
Additional hops: 3876
Set signal latency stall time: 22
Reenqueueing errored packet 131747 at time 2583
Additional hops: 3882
Set signal latency stall time: 12
Additional hops: 3892
Set signal latency stall time: 20
Reenqueueing errored packet 47468 at time 2591
Additional hops: 3901
Set signal latency stall time: 18
Additional hops: 3912
Set signal latency stall time: 22
Additional hops: 3916
Set signal latency stall time: 8
Reenqueueing errored packet 77854 at time 2597
Reenqueueing errored packet 43730 at time 2598
Reenqueueing errored packet 94952 at time 2603
Additional hops: 3923
Set signal latency stall time: 14
Additional hops: 3930
Set signal latency stall time: 14
Reenqueueing errored packet 57762 at time 2610
Reenqueueing errored packet 82572 at time 2611
Reenqueueing errored packet 79176 at time 2614
Additional hops: 3940
Set signal latency stall time: 20
Reenqueueing errored packet 80981 at time 2620
Reenqueueing errored packet 119549 at time 2624
Additional hops: 3950
Set signal latency stall time: 20
Reenqueueing errored packet 48641 at time 2638
Additional hops: 3959
Set signal latency stall time: 18
Reenqueueing errored packet 56439 at time 2650
Additional hops: 3970
Set signal latency stall time: 22
Additional hops: 3974
Set signal latency stall time: 8
Additional hops: 3978
Set signal latency stall time: 8
Reenqueueing errored packet 92446 at time 2661
Reenqueueing errored packet 141291 at time 2664
Additional hops: 3985
Set signal latency stall time: 14
Reenqueueing errored packet 121837 at time 2665
Additional hops: 3994
Set signal latency stall time: 18
Additional hops: 3999
Set signal latency stall time: 10
Additional hops: 4004
Set signal latency stall time: 10
Additional hops: 4011
Set signal latency stall time: 14
Additional hops: 4018
Set signal latency stall time: 14
Reenqueueing errored packet 59215 at time 2679
Reenqueueing errored packet 90085 at time 2681
Reenqueueing errored packet 104483 at time 2681
Additional hops: 4022
Set signal latency stall time: 8
Additional hops: 4029
Set signal latency stall time: 14
Reenqueueing errored packet 79343 at time 2687
Reenqueueing errored packet 95117 at time 2690
Reenqueueing errored packet 116673 at time 2691
Reenqueueing errored packet 105854 at time 2693
Additional hops: 4034
Set signal latency stall time: 10
Additional hops: 4041
Set signal latency stall time: 14
Reenqueueing errored packet 114632 at time 2701
Additional hops: 4048
Set signal latency stall time: 14
Reenqueueing errored packet 122663 at time 2704
Additional hops: 4058
Set signal latency stall time: 20
Additional hops: 4065
Set signal latency stall time: 14
Additional hops: 4074
Set signal latency stall time: 18
Additional hops: 4077
Set signal latency stall time: 6
Additional hops: 4083
Set signal latency stall time: 12
Additional hops: 4087
Set signal latency stall time: 8
Reenqueueing errored packet 103019 at time 2722
Reenqueueing errored packet 141622 at time 2723
Additional hops: 4097
Set signal latency stall time: 20
Reenqueueing errored packet 63737 at time 2727
Reenqueueing errored packet 112520 at time 2730
Additional hops: 4103
Set signal latency stall time: 12
Reenqueueing errored packet 94529 at time 2733
Additional hops: 4105
Set signal latency stall time: 4
Reenqueueing errored packet 152730 at time 2741
Additional hops: 4117
Set signal latency stall time: 24
Reenqueueing errored packet 140346 at time 2743
Additional hops: 4124
Set signal latency stall time: 14
Additional hops: 4132
Set signal latency stall time: 16
Additional hops: 4140
Set signal latency stall time: 16
Reenqueueing errored packet 113278 at time 2761
Additional hops: 4150
Set signal latency stall time: 20
Additional hops: 4159
Set signal latency stall time: 18
Reenqueueing errored packet 41839 at time 2766
Reenqueueing errored packet 56454 at time 2768
Additional hops: 4162
Set signal latency stall time: 6
Reenqueueing errored packet 89331 at time 2770
Additional hops: 4170
Set signal latency stall time: 16
Additional hops: 4172
Set signal latency stall time: 4
Reenqueueing errored packet 120541 at time 2775
Additional hops: 4178
Set signal latency stall time: 12
Reenqueueing errored packet 142853 at time 2779
Reenqueueing errored packet 54253 at time 2782
Additional hops: 4181
Set signal latency stall time: 6
Reenqueueing errored packet 75626 at time 2784
Reenqueueing errored packet 117108 at time 2788
Reenqueueing errored packet 109468 at time 2789
Additional hops: 4188
Set signal latency stall time: 14
Reenqueueing errored packet 141734 at time 2790
Additional hops: 4192
Set signal latency stall time: 8
Additional hops: 4196
Set signal latency stall time: 8
Additional hops: 4204
Set signal latency stall time: 16
Additional hops: 4208
Set signal latency stall time: 8
Additional hops: 4214
Set signal latency stall time: 12
Reenqueueing errored packet 118184 at time 2804
Reenqueueing errored packet 130057 at time 2805
Reenqueueing errored packet 119240 at time 2805
Reenqueueing errored packet 144871 at time 2807
Additional hops: 4222
Set signal latency stall time: 16
Additional hops: 4232
Set signal latency stall time: 20
Additional hops: 4246
Set signal latency stall time: 28
Reenqueueing errored packet 130266 at time 2813
Additional hops: 4249
Set signal latency stall time: 6
Reenqueueing errored packet 116234 at time 2814
Additional hops: 4251
Set signal latency stall time: 4
Reenqueueing errored packet 156178 at time 2820
Reenqueueing errored packet 131476 at time 2823
Reenqueueing errored packet 114997 at time 2824
Additional hops: 4261
Set signal latency stall time: 20
Additional hops: 4266
Set signal latency stall time: 10
Reenqueueing errored packet 44674 at time 2839
Additional hops: 4274
Set signal latency stall time: 16
Reenqueueing errored packet 139339 at time 2840
Reenqueueing errored packet 50015 at time 2846
Additional hops: 4279
Set signal latency stall time: 10
Additional hops: 4284
Set signal latency stall time: 10
Additional hops: 4293
Set signal latency stall time: 18
Reenqueueing errored packet 62613 at time 2856
Additional hops: 4301
Set signal latency stall time: 16
Reenqueueing errored packet 111407 at time 2859
Additional hops: 4310
Set signal latency stall time: 18
Additional hops: 4320
Set signal latency stall time: 20
Reenqueueing errored packet 83792 at time 2862
Additional hops: 4326
Set signal latency stall time: 12
Additional hops: 4332
Set signal latency stall time: 12
Additional hops: 4335
Set signal latency stall time: 6
Additional hops: 4338
Set signal latency stall time: 6
Reenqueueing errored packet 83013 at time 2872
Reenqueueing errored packet 157742 at time 2875
Reenqueueing errored packet 82138 at time 2875
Reenqueueing errored packet 107430 at time 2877
Reenqueueing errored packet 63174 at time 2878
Reenqueueing errored packet 122730 at time 2879
Reenqueueing errored packet 81362 at time 2880
Reenqueueing errored packet 57597 at time 2882
Additional hops: 4350
Set signal latency stall time: 24
Additional hops: 4361
Set signal latency stall time: 22
Additional hops: 4370
Set signal latency stall time: 18
Additional hops: 4374
Set signal latency stall time: 8
Additional hops: 4377
Set signal latency stall time: 6
Additional hops: 4387
Set signal latency stall time: 20
Reenqueueing errored packet 149417 at time 2912
Additional hops: 4388
Set signal latency stall time: 2
Reenqueueing errored packet 117304 at time 2914
Reenqueueing errored packet 158905 at time 2915
Reenqueueing errored packet 63264 at time 2915
Reenqueueing errored packet 88786 at time 2916
Additional hops: 4392
Set signal latency stall time: 8
Additional hops: 4402
Set signal latency stall time: 20
Additional hops: 4408
Set signal latency stall time: 12
Additional hops: 4415
Set signal latency stall time: 14
Additional hops: 4427
Set signal latency stall time: 24
Additional hops: 4436
Set signal latency stall time: 18
Reenqueueing errored packet 144964 at time 2925
Reenqueueing errored packet 55747 at time 2927
Reenqueueing errored packet 92145 at time 2932
Reenqueueing errored packet 68771 at time 2938
Additional hops: 4446
Set signal latency stall time: 20
Additional hops: 4455
Set signal latency stall time: 18
Reenqueueing errored packet 108629 at time 2942
Reenqueueing errored packet 49664 at time 2948
Additional hops: 4459
Set signal latency stall time: 8
Additional hops: 4463
Set signal latency stall time: 8
Reenqueueing errored packet 91430 at time 2957
Reenqueueing errored packet 110678 at time 2959
Reenqueueing errored packet 75882 at time 2959
Additional hops: 4471
Set signal latency stall time: 16
Additional hops: 4477
Set signal latency stall time: 12
Reenqueueing errored packet 127864 at time 2965
Additional hops: 4479
Set signal latency stall time: 4
Reenqueueing errored packet 90272 at time 2973
Reenqueueing errored packet 134607 at time 2976
Reenqueueing errored packet 123216 at time 2977
Additional hops: 4484
Set signal latency stall time: 10
Additional hops: 4490
Set signal latency stall time: 12
Additional hops: 4499
Set signal latency stall time: 18
Additional hops: 4510
Set signal latency stall time: 22
Additional hops: 4518
Set signal latency stall time: 16
Additional hops: 4528
Set signal latency stall time: 20
Additional hops: 4534
Set signal latency stall time: 12
Reenqueueing errored packet 137976 at time 2993
Additional hops: 4537
Set signal latency stall time: 6
Additional hops: 4544
Set signal latency stall time: 14
Reenqueueing errored packet 152741 at time 3001
Additional hops: 4548
Set signal latency stall time: 8
Reenqueueing errored packet 86075 at time 3004
Reenqueueing errored packet 109183 at time 3005
Reenqueueing errored packet 56654 at time 3005
Reenqueueing errored packet 59699 at time 3011
Reenqueueing errored packet 152179 at time 3012
Reenqueueing errored packet 65358 at time 3015
Additional hops: 4557
Set signal latency stall time: 18
Additional hops: 4569
Set signal latency stall time: 24
Additional hops: 4575
Set signal latency stall time: 12
Reenqueueing errored packet 138920 at time 3034
Reenqueueing errored packet 121895 at time 3036
Additional hops: 4582
Set signal latency stall time: 14
Additional hops: 4591
Set signal latency stall time: 18
Reenqueueing errored packet 69402 at time 3046
Additional hops: 4598
Set signal latency stall time: 14
Reenqueueing errored packet 116706 at time 3053
Additional hops: 4606
Set signal latency stall time: 16
Additional hops: 4618
Set signal latency stall time: 24
Reenqueueing errored packet 80506 at time 3062
Additional hops: 4625
Set signal latency stall time: 14
Additional hops: 4628
Set signal latency stall time: 6
Additional hops: 4638
Set signal latency stall time: 20
Additional hops: 4647
Set signal latency stall time: 18
Reenqueueing errored packet 145869 at time 3066
Additional hops: 4658
Set signal latency stall time: 22
Additional hops: 4662
Set signal latency stall time: 8
Additional hops: 4674
Set signal latency stall time: 24
Additional hops: 4680
Set signal latency stall time: 12
Reenqueueing errored packet 108908 at time 3077
Additional hops: 4690
Set signal latency stall time: 20
Reenqueueing errored packet 105316 at time 3081
Reenqueueing errored packet 78706 at time 3084
Additional hops: 4694
Set signal latency stall time: 8
Reenqueueing errored packet 100579 at time 3085
Reenqueueing errored packet 56537 at time 3086
Reenqueueing errored packet 130587 at time 3088
Additional hops: 4697
Set signal latency stall time: 6
Reenqueueing errored packet 80092 at time 3092
Additional hops: 4710
Set signal latency stall time: 26
Reenqueueing errored packet 131504 at time 3093
Additional hops: 4712
Set signal latency stall time: 4
Additional hops: 4715
Set signal latency stall time: 6
Additional hops: 4718
Set signal latency stall time: 6
Reenqueueing errored packet 150411 at time 3098
Reenqueueing errored packet 69463 at time 3098
Reenqueueing errored packet 140346 at time 3098
Reenqueueing errored packet 144248 at time 3101
Reenqueueing errored packet 117012 at time 3101
Additional hops: 4724
Set signal latency stall time: 12
Additional hops: 4730
Set signal latency stall time: 12
Additional hops: 4736
Set signal latency stall time: 12
Additional hops: 4742
Set signal latency stall time: 12
Reenqueueing errored packet 95060 at time 3117
Reenqueueing errored packet 133349 at time 3118
Additional hops: 4752
Set signal latency stall time: 20
Reenqueueing errored packet 121484 at time 3122
Reenqueueing errored packet 122279 at time 3125
Additional hops: 4758
Set signal latency stall time: 12
Additional hops: 4764
Set signal latency stall time: 12
Additional hops: 4767
Set signal latency stall time: 6
Reenqueueing errored packet 109086 at time 3140
Additional hops: 4776
Set signal latency stall time: 18
Reenqueueing errored packet 94561 at time 3141
Reenqueueing errored packet 134096 at time 3144
Additional hops: 4780
Set signal latency stall time: 8
Reenqueueing errored packet 134346 at time 3148
Additional hops: 4782
Set signal latency stall time: 4
Additional hops: 4790
Set signal latency stall time: 16
Additional hops: 4795
Set signal latency stall time: 10
Reenqueueing errored packet 64659 at time 3159
Reenqueueing errored packet 93873 at time 3166
Additional hops: 4802
Set signal latency stall time: 14
Additional hops: 4812
Set signal latency stall time: 20
Additional hops: 4820
Set signal latency stall time: 16
Additional hops: 4825
Set signal latency stall time: 10
Additional hops: 4831
Set signal latency stall time: 12
Additional hops: 4837
Set signal latency stall time: 12
Additional hops: 4850
Set signal latency stall time: 26
Additional hops: 4861
Set signal latency stall time: 22
Reenqueueing errored packet 96021 at time 3183
Reenqueueing errored packet 118128 at time 3184
Additional hops: 4869
Set signal latency stall time: 16
Reenqueueing errored packet 135922 at time 3187
Reenqueueing errored packet 129533 at time 3188
Reenqueueing errored packet 122539 at time 3191
Additional hops: 4874
Set signal latency stall time: 10
Additional hops: 4885
Set signal latency stall time: 22
Additional hops: 4893
Set signal latency stall time: 16
Additional hops: 4897
Set signal latency stall time: 8
Reenqueueing errored packet 69190 at time 3202
Reenqueueing errored packet 52200 at time 3202
Reenqueueing errored packet 104949 at time 3204
Reenqueueing errored packet 66455 at time 3204
Additional hops: 4906
Set signal latency stall time: 18
Reenqueueing errored packet 146346 at time 3212
Additional hops: 4914
Set signal latency stall time: 16
Additional hops: 4916
Set signal latency stall time: 4
Additional hops: 4924
Set signal latency stall time: 16
Reenqueueing errored packet 115470 at time 3226
Reenqueueing errored packet 116369 at time 3227
Additional hops: 4931
Set signal latency stall time: 14
Reenqueueing errored packet 67722 at time 3229
Additional hops: 4935
Set signal latency stall time: 8
Additional hops: 4942
Set signal latency stall time: 14
Reenqueueing errored packet 164488 at time 3241
Reenqueueing errored packet 75957 at time 3243
Additional hops: 4950
Set signal latency stall time: 16
Additional hops: 4958
Set signal latency stall time: 16
Additional hops: 4964
Set signal latency stall time: 12
Reenqueueing errored packet 130567 at time 3255
Reenqueueing errored packet 144675 at time 3260
Reenqueueing errored packet 138684 at time 3260
Additional hops: 4969
Set signal latency stall time: 10
Additional hops: 4975
Set signal latency stall time: 12
Additional hops: 4981
Set signal latency stall time: 12
Additional hops: 4987
Set signal latency stall time: 12
Reenqueueing errored packet 139177 at time 3273
Additional hops: 4995
Set signal latency stall time: 16
Additional hops: 4999
Set signal latency stall time: 8
Additional hops: 5004
Set signal latency stall time: 10
Reenqueueing errored packet 141272 at time 3289
Additional hops: 5008
Set signal latency stall time: 8
Additional hops: 5012
Set signal latency stall time: 8
Additional hops: 5021
Set signal latency stall time: 18
Reenqueueing errored packet 112003 at time 3299
Reenqueueing errored packet 167741 at time 3299
Reenqueueing errored packet 171702 at time 3301
Additional hops: 5026
Set signal latency stall time: 10
Additional hops: 5032
Set signal latency stall time: 12
Additional hops: 5045
Set signal latency stall time: 26
Additional hops: 5049
Set signal latency stall time: 8
Reenqueueing errored packet 160323 at time 3315
Reenqueueing errored packet 141531 at time 3319
Additional hops: 5054
Set signal latency stall time: 10
Additional hops: 5060
Set signal latency stall time: 12
Additional hops: 5066
Set signal latency stall time: 12
Additional hops: 5072
Set signal latency stall time: 12
Additional hops: 5081
Set signal latency stall time: 18
Reenqueueing errored packet 128954 at time 3339
Additional hops: 5090
Set signal latency stall time: 18
Additional hops: 5095
Set signal latency stall time: 10
Reenqueueing errored packet 126642 at time 3347
Additional hops: 5100
Set signal latency stall time: 10
Additional hops: 5107
Set signal latency stall time: 14
Reenqueueing errored packet 142238 at time 3354
Additional hops: 5110
Set signal latency stall time: 6
Additional hops: 5117
Set signal latency stall time: 14
Additional hops: 5120
Set signal latency stall time: 6
Additional hops: 5124
Set signal latency stall time: 8
Reenqueueing errored packet 145291 at time 3361
Reenqueueing errored packet 91340 at time 3361
Reenqueueing errored packet 118741 at time 3362
Reenqueueing errored packet 124532 at time 3364
Reenqueueing errored packet 141727 at time 3367
Additional hops: 5133
Set signal latency stall time: 18
Reenqueueing errored packet 66623 at time 3370
Additional hops: 5139
Set signal latency stall time: 12
Additional hops: 5149
Set signal latency stall time: 20
Reenqueueing errored packet 90237 at time 3388
Reenqueueing errored packet 106258 at time 3392
Additional hops: 5153
Set signal latency stall time: 8
Additional hops: 5158
Set signal latency stall time: 10
Additional hops: 5161
Set signal latency stall time: 6
Reenqueueing errored packet 167133 at time 3407
Additional hops: 5169
Set signal latency stall time: 16
Reenqueueing errored packet 159883 at time 3410
Reenqueueing errored packet 174543 at time 3413
Additional hops: 5175
Set signal latency stall time: 12
Additional hops: 5182
Set signal latency stall time: 14
Additional hops: 5188
Set signal latency stall time: 12
Reenqueueing errored packet 161183 at time 3430
Additional hops: 5189
Set signal latency stall time: 2
Reenqueueing errored packet 155455 at time 3434
Additional hops: 5200
Set signal latency stall time: 22
Reenqueueing errored packet 129056 at time 3437
Additional hops: 5205
Set signal latency stall time: 10
Additional hops: 5207
Set signal latency stall time: 4
Additional hops: 5216
Set signal latency stall time: 18
Reenqueueing errored packet 152073 at time 3444
Additional hops: 5226
Set signal latency stall time: 20
Additional hops: 5234
Set signal latency stall time: 16
Reenqueueing errored packet 160763 at time 3449
Additional hops: 5240
Set signal latency stall time: 12
Additional hops: 5251
[...]
Additional hops: 13921
Set signal latency stall time: 20
Additional hops: 13928
Set signal latency stall time: 14
Additional hops: 13935
Set signal latency stall time: 14
Reenqueueing errored packet 307467 at time 8861
Additional hops: 13939
Set signal latency stall time: 8
Additional hops: 13947
Set signal latency stall time: 16
Reenqueueing errored packet 301811 at time 8867
Additional hops: 13955
Set signal latency stall time: 16
Additional hops: 13960
Set signal latency stall time: 10
Reenqueueing errored packet 318316 at time 8873
Reenqueueing errored packet 314529 at time 8874
Additional hops: 13967
Set signal latency stall time: 14
Additional hops: 13974
Set signal latency stall time: 14
Reenqueueing errored packet 309562 at time 8881
Reenqueueing errored packet 274593 at time 8884
Additional hops: 13985
Set signal latency stall time: 22
Reenqueueing errored packet 329384 at time 8892
Reenqueueing errored packet 321511 at time 8893
Additional hops: 13992
Set signal latency stall time: 14
Additional hops: 14001
Set signal latency stall time: 18
Additional hops: 14007
Set signal latency stall time: 12
Additional hops: 14015
Set signal latency stall time: 16
Reenqueueing errored packet 298790 at time 8908
Additional hops: 14020
Set signal latency stall time: 10
Reenqueueing errored packet 325724 at time 8912
Additional hops: 14029
Set signal latency stall time: 18
Additional hops: 14036
Set signal latency stall time: 14
Additional hops: 14042
Set signal latency stall time: 12
Reenqueueing errored packet 299806 at time 8936
Additional hops: 14048
Set signal latency stall time: 12
Additional hops: 14053
Set signal latency stall time: 10
Additional hops: 14058
Set signal latency stall time: 10
Additional hops: 14062
Set signal latency stall time: 8
Reenqueueing errored packet 330542 at time 8959
Reenqueueing errored packet 335776 at time 8963
Additional hops: 14070
Set signal latency stall time: 16
Reenqueueing errored packet 326554 at time 8965
Additional hops: 14075
Set signal latency stall time: 10
Additional hops: 14081
Set signal latency stall time: 12
Additional hops: 14090
Set signal latency stall time: 18
Reenqueueing errored packet 328723 at time 8976
Reenqueueing errored packet 268788 at time 8978
Additional hops: 14092
Set signal latency stall time: 4
Reenqueueing errored packet 310587 at time 8980
Additional hops: 14104
Set signal latency stall time: 24
Additional hops: 14112
Set signal latency stall time: 16
Additional hops: 14124
Set signal latency stall time: 24
Additional hops: 14130
Set signal latency stall time: 12
Additional hops: 14140
Set signal latency stall time: 20
Reenqueueing errored packet 311168 at time 9009
Additional hops: 14145
Set signal latency stall time: 10
Additional hops: 14151
Set signal latency stall time: 12
Reenqueueing errored packet 271980 at time 9018
Additional hops: 14154
Set signal latency stall time: 6
Additional hops: 14158
Set signal latency stall time: 8
Additional hops: 14168
Set signal latency stall time: 20
Additional hops: 14176
Set signal latency stall time: 16
Reenqueueing errored packet 312738 at time 9052
Reenqueueing errored packet 197302 at time 9053
Additional hops: 14184
Set signal latency stall time: 16
Additional hops: 14188
Set signal latency stall time: 8
Additional hops: 14197
Set signal latency stall time: 18
Additional hops: 14202
Set signal latency stall time: 10
Reenqueueing errored packet 319608 at time 9085
Additional hops: 14210
Set signal latency stall time: 16
Additional hops: 14220
Set signal latency stall time: 20
Additional hops: 14226
Set signal latency stall time: 12
Reenqueueing errored packet 236843 at time 9089
Additional hops: 14231
Set signal latency stall time: 10
Additional hops: 14236
Set signal latency stall time: 10
Reenqueueing errored packet 283190 at time 9101
Reenqueueing errored packet 278473 at time 9102
Additional hops: 14242
Set signal latency stall time: 12
Reenqueueing errored packet 281281 at time 9105
Reenqueueing errored packet 324370 at time 9108
Reenqueueing errored packet 335718 at time 9111
Additional hops: 14246
Set signal latency stall time: 8
Additional hops: 14251
Set signal latency stall time: 10
Additional hops: 14259
Set signal latency stall time: 16
Additional hops: 14263
Set signal latency stall time: 8
Additional hops: 14276
Set signal latency stall time: 26
Additional hops: 14284
Set signal latency stall time: 16
Reenqueueing errored packet 297114 at time 9125
Additional hops: 14290
Set signal latency stall time: 12
Reenqueueing errored packet 324715 at time 9128
Additional hops: 14294
Set signal latency stall time: 8
Additional hops: 14299
Set signal latency stall time: 10
Additional hops: 14304
Set signal latency stall time: 10
Additional hops: 14309
Set signal latency stall time: 10
Reenqueueing errored packet 327277 at time 9143
Additional hops: 14318
Set signal latency stall time: 18
Additional hops: 14329
Set signal latency stall time: 22
Reenqueueing errored packet 325280 at time 9145
Additional hops: 14341
Set signal latency stall time: 24
Reenqueueing errored packet 324266 at time 9152
Additional hops: 14347
Set signal latency stall time: 12
Reenqueueing errored packet 333599 at time 9153
Additional hops: 14357
Set signal latency stall time: 20
Additional hops: 14359
Set signal latency stall time: 4
Additional hops: 14366
Set signal latency stall time: 14
Additional hops: 14371
Set signal latency stall time: 10
Additional hops: 14379
Set signal latency stall time: 16
Additional hops: 14384
Set signal latency stall time: 10
Additional hops: 14389
Set signal latency stall time: 10
Reenqueueing errored packet 269688 at time 9163
Reenqueueing errored packet 175669 at time 9165
Additional hops: 14398
Set signal latency stall time: 18
Additional hops: 14401
Set signal latency stall time: 6
Reenqueueing errored packet 297727 at time 9173
Reenqueueing errored packet 275947 at time 9174
Additional hops: 14406
Set signal latency stall time: 10
Additional hops: 14410
Set signal latency stall time: 8
Additional hops: 14416
Set signal latency stall time: 12
Reenqueueing errored packet 338629 at time 9185
Additional hops: 14425
Set signal latency stall time: 18
Additional hops: 14429
Set signal latency stall time: 8
Reenqueueing errored packet 167866 at time 9188
Reenqueueing errored packet 336559 at time 9195
Additional hops: 14438
Set signal latency stall time: 18
Additional hops: 14443
Set signal latency stall time: 10
Additional hops: 14456
Set signal latency stall time: 26
Additional hops: 14462
Set signal latency stall time: 12
Additional hops: 14472
Set signal latency stall time: 20
Additional hops: 14479
Set signal latency stall time: 14
Additional hops: 14485
Set signal latency stall time: 12
Additional hops: 14491
Set signal latency stall time: 12
Reenqueueing errored packet 208210 at time 9222
Reenqueueing errored packet 336982 at time 9228
Additional hops: 14497
Set signal latency stall time: 12
Reenqueueing errored packet 269575 at time 9234
Additional hops: 14504
Set signal latency stall time: 14
Additional hops: 14513
Set signal latency stall time: 18
Additional hops: 14520
Set signal latency stall time: 14
Additional hops: 14523
Set signal latency stall time: 6
Additional hops: 14528
Set signal latency stall time: 10
Additional hops: 14537
Set signal latency stall time: 18
Reenqueueing errored packet 318318 at time 9246
Reenqueueing errored packet 281642 at time 9247
Additional hops: 14549
Set signal latency stall time: 24
Additional hops: 14560
Set signal latency stall time: 22
Additional hops: 14565
Set signal latency stall time: 10
Additional hops: 14569
Set signal latency stall time: 8
Reenqueueing errored packet 341369 at time 9270
Reenqueueing errored packet 330273 at time 9272
Reenqueueing errored packet 317800 at time 9277
Additional hops: 14574
Set signal latency stall time: 10
Additional hops: 14580
Set signal latency stall time: 12
Additional hops: 14585
Set signal latency stall time: 10
Additional hops: 14593
Set signal latency stall time: 16
Reenqueueing errored packet 277266 at time 9282
Additional hops: 14599
Set signal latency stall time: 12
Additional hops: 14613
Set signal latency stall time: 28
Additional hops: 14624
Set signal latency stall time: 22
Additional hops: 14628
Set signal latency stall time: 8
Reenqueueing errored packet 338838 at time 9290
Reenqueueing errored packet 336896 at time 9291
Additional hops: 14634
Set signal latency stall time: 12
Reenqueueing errored packet 334344 at time 9295
Additional hops: 14641
Set signal latency stall time: 14
Additional hops: 14649
Set signal latency stall time: 16
Additional hops: 14656
Set signal latency stall time: 14
Additional hops: 14667
Set signal latency stall time: 22
Reenqueueing errored packet 303090 at time 9306
Additional hops: 14677
Set signal latency stall time: 20
Reenqueueing errored packet 283708 at time 9312
Additional hops: 14683
Set signal latency stall time: 12
Additional hops: 14688
Set signal latency stall time: 10
Reenqueueing errored packet 207868 at time 9324
Reenqueueing errored packet 254489 at time 9328
Additional hops: 14697
Set signal latency stall time: 18
Additional hops: 14707
Set signal latency stall time: 20
Additional hops: 14717
Set signal latency stall time: 20
Additional hops: 14721
Set signal latency stall time: 8
Reenqueueing errored packet 349167 at time 9351
Additional hops: 14729
Set signal latency stall time: 16
Additional hops: 14737
Set signal latency stall time: 16
Reenqueueing errored packet 281857 at time 9361
Additional hops: 14740
Set signal latency stall time: 6
Additional hops: 14749
Set signal latency stall time: 18
Reenqueueing errored packet 347281 at time 9369
Additional hops: 14760
Set signal latency stall time: 22
Reenqueueing errored packet 320509 at time 9371
Additional hops: 14770
Set signal latency stall time: 20
Additional hops: 14779
Set signal latency stall time: 18
Additional hops: 14784
Set signal latency stall time: 10
Additional hops: 14796
Set signal latency stall time: 24
Additional hops: 14800
Set signal latency stall time: 8
Additional hops: 14807
Set signal latency stall time: 14
Reenqueueing errored packet 332376 at time 9391
Reenqueueing errored packet 333966 at time 9392
Additional hops: 14812
Set signal latency stall time: 10
Additional hops: 14816
Set signal latency stall time: 8
Reenqueueing errored packet 333853 at time 9404
Additional hops: 14821
Set signal latency stall time: 10
Reenqueueing errored packet 342152 at time 9408
Reenqueueing errored packet 326210 at time 9416
Additional hops: 14825
Set signal latency stall time: 8
Additional hops: 14829
Set signal latency stall time: 8
Additional hops: 14836
Set signal latency stall time: 14
Reenqueueing errored packet 350720 at time 9429
Additional hops: 14843
Set signal latency stall time: 14
Additional hops: 14851
Set signal latency stall time: 16
Additional hops: 14857
Set signal latency stall time: 12
Additional hops: 14864
Set signal latency stall time: 14
Additional hops: 14869
Set signal latency stall time: 10
Additional hops: 14876
Set signal latency stall time: 14
Additional hops: 14887
Set signal latency stall time: 22
Reenqueueing errored packet 322058 at time 9466
Additional hops: 14899
Set signal latency stall time: 24
Additional hops: 14910
Set signal latency stall time: 22
Additional hops: 14922
Set signal latency stall time: 24
Additional hops: 14925
Set signal latency stall time: 6
Reenqueueing errored packet 285174 at time 9483
Additional hops: 14935
Set signal latency stall time: 20
Reenqueueing errored packet 325166 at time 9493
Additional hops: 14943
Set signal latency stall time: 16
Additional hops: 14951
Set signal latency stall time: 16
Additional hops: 14958
Set signal latency stall time: 14
Additional hops: 14962
Set signal latency stall time: 8
Additional hops: 14970
Set signal latency stall time: 16
Reenqueueing errored packet 234755 at time 9535
Reenqueueing errored packet 296527 at time 9539
Additional hops: 14971
Set signal latency stall time: 2
Additional hops: 14984
Set signal latency stall time: 26
Reenqueueing errored packet 352082 at time 9545
Additional hops: 14989
Set signal latency stall time: 10
Additional hops: 14998
Set signal latency stall time: 18
Additional hops: 15002
Set signal latency stall time: 8
Reenqueueing errored packet 310584 at time 9559
Reenqueueing errored packet 356086 at time 9567
Additional hops: 15011
Set signal latency stall time: 18
Reenqueueing errored packet 281822 at time 9570
Additional hops: 15019
Set signal latency stall time: 16
Additional hops: 15027
Set signal latency stall time: 16
Additional hops: 15035
Set signal latency stall time: 16
Reenqueueing errored packet 337072 at time 9587
Additional hops: 15039
Set signal latency stall time: 8
Additional hops: 15045
Set signal latency stall time: 12
Reenqueueing errored packet 297218 at time 9597
Additional hops: 15049
Set signal latency stall time: 8
Additional hops: 15058
Set signal latency stall time: 18
Additional hops: 15068
Set signal latency stall time: 20
Additional hops: 15077
Set signal latency stall time: 18
Additional hops: 15086
Set signal latency stall time: 18
Reenqueueing errored packet 363004 at time 9609
Additional hops: 15095
Set signal latency stall time: 18
Additional hops: 15099
Set signal latency stall time: 8
Additional hops: 15105
Set signal latency stall time: 12
Additional hops: 15115
Set signal latency stall time: 20
Reenqueueing errored packet 320095 at time 9622
Reenqueueing errored packet 338184 at time 9622
Reenqueueing errored packet 333172 at time 9623
Additional hops: 15120
Set signal latency stall time: 10
Reenqueueing errored packet 327274 at time 9628
Additional hops: 15132
Set signal latency stall time: 24
Additional hops: 15140
Set signal latency stall time: 16
Additional hops: 15150
Set signal latency stall time: 20
Additional hops: 15160
Set signal latency stall time: 20
Additional hops: 15172
Set signal latency stall time: 24
Additional hops: 15176
Set signal latency stall time: 8
Reenqueueing errored packet 342561 at time 9659
Reenqueueing errored packet 301478 at time 9666
Additional hops: 15179
Set signal latency stall time: 6
Reenqueueing errored packet 357581 at time 9675
Additional hops: 15185
Set signal latency stall time: 12
Additional hops: 15191
Set signal latency stall time: 12
Additional hops: 15195
Set signal latency stall time: 8
Reenqueueing errored packet 300307 at time 9688
Additional hops: 15202
Set signal latency stall time: 14
Reenqueueing errored packet 346216 at time 9690
Additional hops: 15205
Set signal latency stall time: 6
Additional hops: 15211
Set signal latency stall time: 12
Additional hops: 15215
Set signal latency stall time: 8
Reenqueueing errored packet 358071 at time 9701
Additional hops: 15223
Set signal latency stall time: 16
Reenqueueing errored packet 361174 at time 9705
Additional hops: 15234
Set signal latency stall time: 22
Additional hops: 15243
Set signal latency stall time: 18
Additional hops: 15248
Set signal latency stall time: 10
Additional hops: 15255
Set signal latency stall time: 14
Additional hops: 15264
Set signal latency stall time: 18
Additional hops: 15268
Set signal latency stall time: 8
Additional hops: 15277
Set signal latency stall time: 18
Reenqueueing errored packet 332157 at time 9736
Reenqueueing errored packet 243811 at time 9741
Reenqueueing errored packet 340331 at time 9744
Reenqueueing errored packet 292948 at time 9746
Additional hops: 15280
Set signal latency stall time: 6
Additional hops: 15287
Set signal latency stall time: 14
Reenqueueing errored packet 353327 at time 9752
Additional hops: 15291
Set signal latency stall time: 8
Reenqueueing errored packet 359650 at time 9754
Reenqueueing errored packet 352224 at time 9762
Reenqueueing errored packet 311752 at time 9766
Additional hops: 15295
Set signal latency stall time: 8
Reenqueueing errored packet 353764 at time 9778
Additional hops: 15302
Set signal latency stall time: 14
Additional hops: 15306
Set signal latency stall time: 8
Additional hops: 15313
Set signal latency stall time: 14
Additional hops: 15323
Set signal latency stall time: 20
Additional hops: 15333
Set signal latency stall time: 20
Additional hops: 15343
Set signal latency stall time: 20
Additional hops: 15352
Set signal latency stall time: 18
Additional hops: 15358
Set signal latency stall time: 12
Reenqueueing errored packet 320500 at time 9821
Additional hops: 15366
Set signal latency stall time: 16
Additional hops: 15373
Set signal latency stall time: 14
Reenqueueing errored packet 303756 at time 9825
Additional hops: 15383
Set signal latency stall time: 20
Additional hops: 15394
Set signal latency stall time: 22
Additional hops: 15397
Set signal latency stall time: 6
Additional hops: 15404
Set signal latency stall time: 14
Reenqueueing errored packet 357518 at time 9838
Additional hops: 15412
Set signal latency stall time: 16
Additional hops: 15422
Set signal latency stall time: 20
Reenqueueing errored packet 338942 at time 9851
Reenqueueing errored packet 333414 at time 9855
Reenqueueing errored packet 176876 at time 9855
Additional hops: 15428
Set signal latency stall time: 12
Additional hops: 15439
Set signal latency stall time: 22
Additional hops: 15449
Set signal latency stall time: 20
Reenqueueing errored packet 336996 at time 9868
Additional hops: 15454
Set signal latency stall time: 10
Additional hops: 15460
Set signal latency stall time: 12
Reenqueueing errored packet 343254 at time 9882
Additional hops: 15466
Set signal latency stall time: 12
Additional hops: 15475
Set signal latency stall time: 18
Additional hops: 15489
Set signal latency stall time: 28
Additional hops: 15495
Set signal latency stall time: 12
Reenqueueing errored packet 337870 at time 9915
Additional hops: 15501
Set signal latency stall time: 12
Additional hops: 15510
Set signal latency stall time: 18
Reenqueueing errored packet 338203 at time 9925
Additional hops: 15516
Set signal latency stall time: 12
Reenqueueing errored packet 355634 at time 9932
Reenqueueing errored packet 231258 at time 9936
Additional hops: 15526
Set signal latency stall time: 20
Additional hops: 15534
Set signal latency stall time: 16
Reenqueueing errored packet 269669 at time 9943
Additional hops: 15548
Set signal latency stall time: 28
Reenqueueing errored packet 303224 at time 9957
Additional hops: 15549
Set signal latency stall time: 2
Additional hops: 15557
Set signal latency stall time: 16
Additional hops: 15566
Set signal latency stall time: 18
Additional hops: 15575
Set signal latency stall time: 18
Reenqueueing errored packet 319145 at time 9978
Additional hops: 15581
Set signal latency stall time: 12
Reenqueueing errored packet 310368 at time 9983
Additional hops: 15589
Set signal latency stall time: 16
Additional hops: 15596
Set signal latency stall time: 14
Additional hops: 15606
Set signal latency stall time: 20
Additional hops: 15613
Set signal latency stall time: 14
Class 0:
Packet latency average = 1750.4
	minimum = 5
	maximum = 8609
Network latency average = 1488.11
	minimum = 5
	maximum = 6920
Slowest packet = 7349
Flit latency average = 1488.11
	minimum = 5
	maximum = 6920
Slowest flit = 165176
Fragmentation average = 0
	minimum = 0
	maximum = 0
Injected packet rate average = 0.620281
	minimum = 0.4238 (at node 6)
	maximum = 0.8945 (at node 60)
Accepted packet rate average = 0.501
	minimum = 0.4767 (at node 21)
	maximum = 0.5176 (at node 15)
Injected flit rate average = 0.620281
	minimum = 0.4238 (at node 6)
	maximum = 0.8945 (at node 60)
Accepted flit rate average= 0.501
	minimum = 0.4767 (at node 21)
	maximum = 0.5176 (at node 15)
Injected packet length average = 1
Accepted packet length average = 1
Total in-flight flits = 76990 (0 measured)
latency change    = 1
throughput change = 1
Average latency for class 0 exceeded 500 cycles. Aborting simulation.
Too many sample periods needed to converge
Simulation unstable, ending ...
Total run time 55.6816
