BEGIN Configuration File: examples/ecc_mesh88_config_1_0.950_link_4
// $Id$

// Copyright (c) 2007-2015, Trustees of The Leland Stanford Junior University
// All rights reserved.
//
// Redistribution and use in source and binary forms, with or without
// modification, are permitted provided that the following conditions are met:
//
// Redistributions of source code must retain the above copyright notice, this
// list of conditions and the following disclaimer.
// Redistributions in binary form must reproduce the above copyright notice,
// this list of conditions and the following disclaimer in the documentation
// and/or other materials provided with the distribution.
//
// THIS SOFTWARE IS PROVIDED BY THE COPYRIGHT HOLDERS AND CONTRIBUTORS "AS IS"
// AND ANY EXPRESS OR IMPLIED WARRANTIES, INCLUDING, BUT NOT LIMITED TO, THE
// IMPLIED WARRANTIES OF MERCHANTABILITY AND FITNESS FOR A PARTICULAR PURPOSE
// ARE DISCLAIMED. IN NO EVENT SHALL THE COPYRIGHT OWNER OR CONTRIBUTORS BE
// LIABLE FOR ANY DIRECT, INDIRECT, INCIDENTAL, SPECIAL, EXEMPLARY, OR
// CONSEQUENTIAL DAMAGES (INCLUDING, BUT NOT LIMITED TO, PROCUREMENT OF
// SUBSTITUTE GOODS OR SERVICES; LOSS OF USE, DATA, OR PROFITS; OR BUSINESS
// INTERRUPTION) HOWEVER CAUSED AND ON ANY THEORY OF LIABILITY, WHETHER IN
// CONTRACT, STRICT LIABILITY, OR TORT (INCLUDING NEGLIGENCE OR OTHERWISE)
// ARISING IN ANY WAY OUT OF THE USE OF THIS SOFTWARE, EVEN IF ADVISED OF THE
// POSSIBILITY OF SUCH DAMAGE.

// Dragonfly
//




vc_buf_size = 256;


wait_for_tail_credit = 0;

//
// Router architecture
//
vc_allocator = separable_input_first; 
sw_allocator = separable_input_first;
alloc_iters  = 1;

credit_delay   = 2;
routing_delay  = 0;
vc_alloc_delay = 1;
sw_alloc_delay = 1;
st_final_delay = 1;

input_speedup     = 1;
output_speedup    = 1;
internal_speedup  = 2.0;


warmup_periods = 3;
sim_count          = 1;

sample_period  = 10000;  


routing_function = dor;
num_vcs     = 2;

priority = none;
traffic       = uniform; 

injection_rate = 0.95;
packet_size = 1;
injection_rate_uses_flits = 1;

topology = mesh;

k  = 8;
n  = 2;

fer = 4;
ecc = link;

watch_out=-;
//watch_file = watch.txt;

ecc = link;

stats_out = examples/ecc_mesh88_config_1_0.950_link_4.m;

END Configuration File: examples/ecc_mesh88_config_1_0.950_link_4
7
Received nack credit for flit 13
Requeued flit 13
2
Received nack credit for flit 2792
Requeued flit 2792
2
Received nack credit for flit 3494
Requeued flit 3494
1
Received nack credit for flit 6791
Requeued flit 6791
1
Received nack credit for flit 8952
Requeued flit 8952
1
Received nack credit for flit 13468
Requeued flit 13468
2
Received nack credit for flit 7938
Requeued flit 7938
7
Received nack credit for flit 9688
Requeued flit 9688
1
Received nack credit for flit 13993
Requeued flit 13993
1
Received nack credit for flit 25917
Requeued flit 25917
1
Received nack credit for flit 27207
Requeued flit 27207
2
Received nack credit for flit 27513
Requeued flit 27513
1
1
Received nack credit for flit 20674
Requeued flit 20674
Received nack credit for flit 29763
Requeued flit 29763
1
Received nack credit for flit 26066
Requeued flit 26066
5
Received nack credit for flit 13564
Requeued flit 13564
4
Received nack credit for flit 37487
Requeued flit 37487
1
Received nack credit for flit 47124
Requeued flit 47124
4
4
Received nack credit for flit 43057
Requeued flit 43057
Received nack credit for flit 20268
Requeued flit 20268
1
Received nack credit for flit 51784
Requeued flit 51784
3
4
Received nack credit for flit 27935
Requeued flit 27935
Received nack credit for flit 43257
Requeued flit 43257
4
Received nack credit for flit 30155
Requeued flit 30155
1
7
Received nack credit for flit 44497
Requeued flit 44497
Received nack credit for flit 32233
Requeued flit 32233
9
Received nack credit for flit 19611
Requeued flit 19611
1
Received nack credit for flit 68921
Requeued flit 68921
1
Received nack credit for flit 66144
Requeued flit 66144
1
Received nack credit for flit 51658
Requeued flit 51658
1
1
Received nack credit for flit 67598
Requeued flit 67598
Received nack credit for flit 51308
Requeued flit 51308
3
Received nack credit for flit 74553
Requeued flit 74553
1
7
Received nack credit for flit 66698
Requeued flit 66698
Received nack credit for flit 54324
Requeued flit 54324
1
Received nack credit for flit 87771
Requeued flit 87771
2
Received nack credit for flit 63518
Requeued flit 63518
1
Received nack credit for flit 65153
Requeued flit 65153
9
Received nack credit for flit 35775
Requeued flit 35775
3
Received nack credit for flit 47559
Requeued flit 47559
1
Received nack credit for flit 76786
Requeued flit 76786
1
Received nack credit for flit 100308
Requeued flit 100308
1
Received nack credit for flit 79827
Requeued flit 79827
1
Received nack credit for flit 96841
Requeued flit 96841
1
Received nack credit for flit 84119
Requeued flit 84119
3
Received nack credit for flit 53281
Requeued flit 53281
8
Received nack credit for flit 68144
Requeued flit 68144
1
Received nack credit for flit 78596
Requeued flit 78596
6
Received nack credit for flit 71344
Requeued flit 71344
1
Received nack credit for flit 83620
Requeued flit 83620
2
Received nack credit for flit 82783
Requeued flit 82783
6
Received nack credit for flit 85822
Requeued flit 85822
1
Received nack credit for flit 90747
Requeued flit 90747
5
Received nack credit for flit 81279
Requeued flit 81279
1
Received nack credit for flit 90796
Requeued flit 90796
7
Received nack credit for flit 55159
Requeued flit 55159
1
Received nack credit for flit 130780
Requeued flit 130780
8
Received nack credit for flit 44179
Requeued flit 44179
1
Received nack credit for flit 131598
Requeued flit 131598
2
Received nack credit for flit 66421
Requeued flit 66421
1
1
Received nack credit for flit 110086
Requeued flit 110086
Received nack credit for flit 96162
Requeued flit 96162
2
Received nack credit for flit 125554
Requeued flit 125554
8
Received nack credit for flit 71946
Requeued flit 71946
6
Received nack credit for flit 48953
Requeued flit 48953
5
Received nack credit for flit 51961
Requeued flit 51961
2
3
Received nack credit for flit 80962
Requeued flit 80962
Received nack credit for flit 73217
Requeued flit 73217
3
Received nack credit for flit 79236
Requeued flit 79236
4
Received nack credit for flit 60085
Requeued flit 60085
2
Received nack credit for flit 81498
Requeued flit 81498
6
Received nack credit for flit 91751
Requeued flit 91751
1
Received nack credit for flit 135807
Requeued flit 135807
1
Received nack credit for flit 148952
Requeued flit 148952
3
Received nack credit for flit 148167
Requeued flit 148167
9
Received nack credit for flit 84618
Requeued flit 84618
1
Received nack credit for flit 144106
Requeued flit 144106
8
Received nack credit for flit 93416
Requeued flit 93416
7
Received nack credit for flit 96076
Requeued flit 96076
4
Received nack credit for flit 169594
Requeued flit 169594
2
Received nack credit for flit 158862
Requeued flit 158862
4
Received nack credit for flit 161507
Requeued flit 161507
3
Received nack credit for flit 137312
Requeued flit 137312
2
Received nack credit for flit 114842
Requeued flit 114842
5
Received nack credit for flit 103690
Requeued flit 103690
2
Received nack credit for flit 135756
Requeued flit 135756
6
Received nack credit for flit 113167
Requeued flit 113167
1
Received nack credit for flit 181673
Requeued flit 181673
1
Received nack credit for flit 123409
Requeued flit 123409
7
Received nack credit for flit 109132
Requeued flit 109132
3
Received nack credit for flit 170188
Requeued flit 170188
1
Received nack credit for flit 137153
Requeued flit 137153
1
Received nack credit for flit 177197
Requeued flit 177197
3
Received nack credit for flit 106023
Requeued flit 106023
1
1
Received nack credit for flit 159598
Requeued flit 159598
Received nack credit for flit 190531
Requeued flit 190531
7
Received nack credit for flit 95663
Requeued flit 95663
5
Received nack credit for flit 82899
Requeued flit 82899
1
4
Received nack credit for flit 185794
Requeued flit 185794
Received nack credit for flit 152535
Requeued flit 152535
1
Received nack credit for flit 154693
Requeued flit 154693
1
Received nack credit for flit 198050
Requeued flit 198050
3
Received nack credit for flit 105690
Requeued flit 105690
4
Received nack credit for flit 197503
Requeued flit 197503
4
Received nack credit for flit 97079
Requeued flit 97079
1
Received nack credit for flit 194677
Requeued flit 194677
1
Received nack credit for flit 197810
Requeued flit 197810
1
Received nack credit for flit 172659
Requeued flit 172659
4
Received nack credit for flit 197930
Requeued flit 197930
1
Received nack credit for flit 204698
Requeued flit 204698
2
1
7
Received nack credit for flit 124593
Requeued flit 124593
Received nack credit for flit 173515
Requeued flit 173515
Received nack credit for flit 94650
Requeued flit 94650
1
Received nack credit for flit 204859
Requeued flit 204859
6
Received nack credit for flit 104775
Requeued flit 104775
2
Received nack credit for flit 171867
Requeued flit 171867
8
Received nack credit for flit 143370
Requeued flit 143370
3
Received nack credit for flit 224381
Requeued flit 224381
9
Received nack credit for flit 99976
Requeued flit 99976
1
Received nack credit for flit 217453
Requeued flit 217453
6
Received nack credit for flit 217275
Requeued flit 217275
7
1
1
Received nack credit for flit 224101
Requeued flit 224101
Received nack credit for flit 108058
Requeued flit 108058
Received nack credit for flit 235570
Requeued flit 235570
9
Received nack credit for flit 108415
Requeued flit 108415
5
Received nack credit for flit 194343
Requeued flit 194343
1
Received nack credit for flit 228240
Requeued flit 228240
1
Received nack credit for flit 231545
Requeued flit 231545
1
Received nack credit for flit 229086
Requeued flit 229086
6
Received nack credit for flit 218421
Requeued flit 218421
2
Received nack credit for flit 198877
Requeued flit 198877
1
Received nack credit for flit 202658
Requeued flit 202658
3
Received nack credit for flit 121856
Requeued flit 121856
6
Received nack credit for flit 234854
Requeued flit 234854
1
1
Received nack credit for flit 252549
Requeued flit 252549
Received nack credit for flit 249306
Requeued flit 249306
1
Received nack credit for flit 213757
Requeued flit 213757
2
Received nack credit for flit 162222
Requeued flit 162222
3
4
Received nack credit for flit 207135
Requeued flit 207135
Received nack credit for flit 224944
Requeued flit 224944
8
Received nack credit for flit 190427
Requeued flit 190427
4
Received nack credit for flit 190936
Requeued flit 190936
1
Received nack credit for flit 249666
Requeued flit 249666
1
Received nack credit for flit 255647
Requeued flit 255647
3
Received nack credit for flit 263962
Requeued flit 263962
3
Received nack credit for flit 210765
Requeued flit 210765
1
Received nack credit for flit 259560
Requeued flit 259560
3
1
Received nack credit for flit 230568
Requeued flit 230568
Received nack credit for flit 231493
Requeued flit 231493
1
4
Received nack credit for flit 231937
Requeued flit 231937
Received nack credit for flit 246418
Requeued flit 246418
3
Received nack credit for flit 155074
Requeued flit 155074
2
Received nack credit for flit 252229
Requeued flit 252229
1
Received nack credit for flit 265506
Requeued flit 265506
5
Received nack credit for flit 263513
Requeued flit 263513
2
1
Received nack credit for flit 286843
Requeued flit 286843
Received nack credit for flit 246857
Requeued flit 246857
3
Received nack credit for flit 158858
Requeued flit 158858
1
Received nack credit for flit 247902
Requeued flit 247902
1
3
Received nack credit for flit 278279
Requeued flit 278279
Received nack credit for flit 158341
Requeued flit 158341
1
2
Received nack credit for flit 279448
Requeued flit 279448
Received nack credit for flit 186564
Requeued flit 186564
4
3
Received nack credit for flit 275567
Requeued flit 275567
Received nack credit for flit 262804
Requeued flit 262804
2
Received nack credit for flit 191511
Requeued flit 191511
2
Received nack credit for flit 267714
Requeued flit 267714
5
Received nack credit for flit 233139
Requeued flit 233139
4
Received nack credit for flit 283941
Requeued flit 283941
7
Received nack credit for flit 279016
Requeued flit 279016
4
Received nack credit for flit 280238
Requeued flit 280238
4
Received nack credit for flit 156578
Requeued flit 156578
4
1
Received nack credit for flit 175994
Requeued flit 175994
Received nack credit for flit 299640
Requeued flit 299640
1
Received nack credit for flit 284053
Requeued flit 284053
8
Received nack credit for flit 171767
Requeued flit 171767
5
Received nack credit for flit 263106
Requeued flit 263106
1
Received nack credit for flit 304927
Requeued flit 304927
4
Received nack credit for flit 160472
Requeued flit 160472
3
Received nack credit for flit 276178
Requeued flit 276178
5
Received nack credit for flit 280365
Requeued flit 280365
4
Received nack credit for flit 160814
Requeued flit 160814
1
9
Received nack credit for flit 326106
Requeued flit 326106
Received nack credit for flit 285280
Requeued flit 285280
2
Received nack credit for flit 294286
Requeued flit 294286
5
1
Received nack credit for flit 328621
Requeued flit 328621
Received nack credit for flit 315958
Requeued flit 315958
1
Received nack credit for flit 306008
Requeued flit 306008
1
Received nack credit for flit 337988
Requeued flit 337988
1
Received nack credit for flit 328906
Requeued flit 328906
7
Received nack credit for flit 214555
Requeued flit 214555
4
Received nack credit for flit 222079
Requeued flit 222079
4
Received nack credit for flit 202507
Requeued flit 202507
1
1
5
Received nack credit for flit 319106
Requeued flit 319106
Received nack credit for flit 331209
Requeued flit 331209
Received nack credit for flit 310532
Requeued flit 310532
2
Received nack credit for flit 250482
Requeued flit 250482
3
Received nack credit for flit 338214
Requeued flit 338214
1
Received nack credit for flit 342153
Requeued flit 342153
7
Received nack credit for flit 308176
Requeued flit 308176
5
Received nack credit for flit 176161
Requeued flit 176161
3
Received nack credit for flit 253612
Requeued flit 253612
2
Received nack credit for flit 289328
Requeued flit 289328
1
Received nack credit for flit 340719
Requeued flit 340719
1
Received nack credit for flit 349762
Requeued flit 349762
1
Received nack credit for flit 345256
Requeued flit 345256
2
Received nack credit for flit 291291
Requeued flit 291291
4
Received nack credit for flit 225441
Requeued flit 225441
1
Received nack credit for flit 347222
Requeued flit 347222
5
Received nack credit for flit 329591
Requeued flit 329591
3
Received nack credit for flit 301152
Requeued flit 301152
3
1
Received nack credit for flit 324041
Requeued flit 324041
Received nack credit for flit 333889
Requeued flit 333889
2
Received nack credit for flit 329857
Requeued flit 329857
3
Received nack credit for flit 267471
Requeued flit 267471
3
Received nack credit for flit 366423
Requeued flit 366423
3
Received nack credit for flit 326849
Requeued flit 326849
2
Received nack credit for flit 356945
Requeued flit 356945
4
Received nack credit for flit 359162
Requeued flit 359162
Class 0:
Packet latency average = 1892.12
	minimum = 5
	maximum = 7133
Network latency average = 1572.48
	minimum = 5
	maximum = 7133
Slowest packet = 165335
Flit latency average = 1572.48
	minimum = 5
	maximum = 7133
Slowest flit = 165335
Fragmentation average = 0
	minimum = 0
	maximum = 0
Injected packet rate average = 0.620616
	minimum = 0.4256 (at node 62)
	maximum = 0.9029 (at node 12)
Accepted packet rate average = 0.501122
	minimum = 0.4831 (at node 17)
	maximum = 0.5172 (at node 14)
Injected flit rate average = 0.620616
	minimum = 0.4256 (at node 62)
	maximum = 0.9029 (at node 12)
Accepted flit rate average= 0.501122
	minimum = 0.4831 (at node 17)
	maximum = 0.5172 (at node 14)
Injected packet length average = 1
Accepted packet length average = 1
Total in-flight flits = 76510 (0 measured)
latency change    = 1
throughput change = 1
Average latency for class 0 exceeded 500 cycles. Aborting simulation.
Too many sample periods needed to converge
Simulation unstable, ending ...
Total run time 56.0318
