BEGIN Configuration File: examples/ecc_mesh88_config_1_0.600_link_4
// $Id$

// Copyright (c) 2007-2015, Trustees of The Leland Stanford Junior University
// All rights reserved.
//
// Redistribution and use in source and binary forms, with or without
// modification, are permitted provided that the following conditions are met:
//
// Redistributions of source code must retain the above copyright notice, this
// list of conditions and the following disclaimer.
// Redistributions in binary form must reproduce the above copyright notice,
// this list of conditions and the following disclaimer in the documentation
// and/or other materials provided with the distribution.
//
// THIS SOFTWARE IS PROVIDED BY THE COPYRIGHT HOLDERS AND CONTRIBUTORS "AS IS"
// AND ANY EXPRESS OR IMPLIED WARRANTIES, INCLUDING, BUT NOT LIMITED TO, THE
// IMPLIED WARRANTIES OF MERCHANTABILITY AND FITNESS FOR A PARTICULAR PURPOSE
// ARE DISCLAIMED. IN NO EVENT SHALL THE COPYRIGHT OWNER OR CONTRIBUTORS BE
// LIABLE FOR ANY DIRECT, INDIRECT, INCIDENTAL, SPECIAL, EXEMPLARY, OR
// CONSEQUENTIAL DAMAGES (INCLUDING, BUT NOT LIMITED TO, PROCUREMENT OF
// SUBSTITUTE GOODS OR SERVICES; LOSS OF USE, DATA, OR PROFITS; OR BUSINESS
// INTERRUPTION) HOWEVER CAUSED AND ON ANY THEORY OF LIABILITY, WHETHER IN
// CONTRACT, STRICT LIABILITY, OR TORT (INCLUDING NEGLIGENCE OR OTHERWISE)
// ARISING IN ANY WAY OUT OF THE USE OF THIS SOFTWARE, EVEN IF ADVISED OF THE
// POSSIBILITY OF SUCH DAMAGE.

// Dragonfly
//




vc_buf_size = 256;


wait_for_tail_credit = 0;

//
// Router architecture
//
vc_allocator = separable_input_first; 
sw_allocator = separable_input_first;
alloc_iters  = 1;

credit_delay   = 2;
routing_delay  = 0;
vc_alloc_delay = 1;
sw_alloc_delay = 1;
st_final_delay = 1;

input_speedup     = 1;
output_speedup    = 1;
internal_speedup  = 2.0;


warmup_periods = 3;
sim_count          = 1;

sample_period  = 10000;  


routing_function = dor;
num_vcs     = 2;

priority = none;
traffic       = uniform; 

injection_rate = 0.6;
packet_size = 1;
injection_rate_uses_flits = 1;

topology = mesh;

k  = 8;
n  = 2;

fer = 4;
ecc = link;

watch_out=-;
//watch_file = watch.txt;

ecc = link;

stats_out = examples/ecc_mesh88_config_1_0.600_link_4.m;

END Configuration File: examples/ecc_mesh88_config_1_0.600_link_4
1
Received nack credit for flit 1183
Requeued flit 1183
3
Received nack credit for flit 1928
Requeued flit 1928
1
Received nack credit for flit 5567
Requeued flit 5567
3
Received nack credit for flit 7560
Requeued flit 7560
2
Received nack credit for flit 9488
Requeued flit 9488
1
1
Received nack credit for flit 13079
Requeued flit 13079
Received nack credit for flit 13212
Requeued flit 13212
1
Received nack credit for flit 17785
Requeued flit 17785
5
Received nack credit for flit 17563
Requeued flit 17563
1
Received nack credit for flit 18602
Requeued flit 18602
3
Received nack credit for flit 21965
Requeued flit 21965
6
Received nack credit for flit 22281
Requeued flit 22281
3
Received nack credit for flit 24629
Requeued flit 24629
7
Received nack credit for flit 30008
Requeued flit 30008
4
7
Received nack credit for flit 30995
Requeued flit 30995
Received nack credit for flit 31592
Requeued flit 31592
2
Received nack credit for flit 42156
Requeued flit 42156
1
Received nack credit for flit 42658
Requeued flit 42658
5
2
Received nack credit for flit 33883
Requeued flit 33883
Received nack credit for flit 44335
Requeued flit 44335
1
Received nack credit for flit 47113
Requeued flit 47113
1
Received nack credit for flit 47247
Requeued flit 47247
7
Received nack credit for flit 37773
Requeued flit 37773
2
Received nack credit for flit 48852
Requeued flit 48852
3
Received nack credit for flit 41384
Requeued flit 41384
1
Received nack credit for flit 49568
Requeued flit 49568
4
Received nack credit for flit 41670
Requeued flit 41670
5
Received nack credit for flit 46362
Requeued flit 46362
1
Received nack credit for flit 58856
Requeued flit 58856
5
Received nack credit for flit 48452
Requeued flit 48452
5
Received nack credit for flit 60631
Requeued flit 60631
1
Received nack credit for flit 59575
Requeued flit 59575
1
Received nack credit for flit 69227
Requeued flit 69227
4
Received nack credit for flit 60610
Requeued flit 60610
1
Received nack credit for flit 76892
Requeued flit 76892
5
Received nack credit for flit 69043
Requeued flit 69043
7
Received nack credit for flit 71059
Requeued flit 71059
1
Received nack credit for flit 84096
Requeued flit 84096
12
Received nack credit for flit 61759
Requeued flit 61759
6
Received nack credit for flit 68130
Requeued flit 68130
1
Received nack credit for flit 87047
Requeued flit 87047
1
Received nack credit for flit 87543
Requeued flit 87543
1
Received nack credit for flit 88174
Requeued flit 88174
1
Received nack credit for flit 88738
Requeued flit 88738
5
Received nack credit for flit 82443
Requeued flit 82443
6
1
Received nack credit for flit 76685
Requeued flit 76685
Received nack credit for flit 83946
Requeued flit 83946
4
Received nack credit for flit 76532
Requeued flit 76532
2
Received nack credit for flit 96513
Requeued flit 96513
3
Received nack credit for flit 78629
Requeued flit 78629
1
Received nack credit for flit 103239
Requeued flit 103239
3
Received nack credit for flit 92891
Requeued flit 92891
1
Received nack credit for flit 104018
Requeued flit 104018
1
Received nack credit for flit 97219
Requeued flit 97219
7
1
Received nack credit for flit 87248
Requeued flit 87248
Received nack credit for flit 98613
Requeued flit 98613
1
Received nack credit for flit 111161
Requeued flit 111161
1
Received nack credit for flit 119497
Requeued flit 119497
10
7
Received nack credit for flit 87714
Requeued flit 87714
Received nack credit for flit 98651
Requeued flit 98651
1
Received nack credit for flit 124586
Requeued flit 124586
3
Received nack credit for flit 100462
Requeued flit 100462
2
Received nack credit for flit 116463
Requeued flit 116463
7
Received nack credit for flit 95516
Requeued flit 95516
3
Received nack credit for flit 126059
Requeued flit 126059
3
Received nack credit for flit 108456
Requeued flit 108456
2
Received nack credit for flit 120981
Requeued flit 120981
9
Received nack credit for flit 113612
Requeued flit 113612
5
Received nack credit for flit 110090
Requeued flit 110090
3
Received nack credit for flit 141168
Requeued flit 141168
2
Received nack credit for flit 141537
Requeued flit 141537
2
Received nack credit for flit 145979
Requeued flit 145979
3
4
Received nack credit for flit 131817
Requeued flit 131817
Received nack credit for flit 118556
Requeued flit 118556
1
Received nack credit for flit 136666
Requeued flit 136666
4
Received nack credit for flit 139172
Requeued flit 139172
3
3
Received nack credit for flit 154559
Requeued flit 154559
Received nack credit for flit 137857
Requeued flit 137857
6
Received nack credit for flit 127783
Requeued flit 127783
6
Received nack credit for flit 140669
Requeued flit 140669
5
Received nack credit for flit 136882
Requeued flit 136882
5
Received nack credit for flit 131152
Requeued flit 131152
1
Received nack credit for flit 163808
Requeued flit 163808
3
Received nack credit for flit 134038
Requeued flit 134038
3
Received nack credit for flit 158805
Requeued flit 158805
2
Received nack credit for flit 154034
Requeued flit 154034
1
Received nack credit for flit 161496
Requeued flit 161496
5
Received nack credit for flit 136441
Requeued flit 136441
2
Received nack credit for flit 173316
Requeued flit 173316
2
Received nack credit for flit 149888
Requeued flit 149888
7
Received nack credit for flit 124983
Requeued flit 124983
1
Received nack credit for flit 177102
Requeued flit 177102
3
Received nack credit for flit 161407
Requeued flit 161407
2
Received nack credit for flit 181076
Requeued flit 181076
1
Received nack credit for flit 184156
Requeued flit 184156
4
Received nack credit for flit 184208
Requeued flit 184208
1
Received nack credit for flit 185053
Requeued flit 185053
6
Received nack credit for flit 150834
Requeued flit 150834
2
Received nack credit for flit 168231
Requeued flit 168231
2
Received nack credit for flit 173456
Requeued flit 173456
1
Received nack credit for flit 194243
Requeued flit 194243
4
Received nack credit for flit 176360
Requeued flit 176360
1
Received nack credit for flit 195490
Requeued flit 195490
2
Received nack credit for flit 160404
Requeued flit 160404
4
Received nack credit for flit 180726
Requeued flit 180726
1
2
8
Received nack credit for flit 201431
Requeued flit 201431
Received nack credit for flit 181672
Requeued flit 181672
Received nack credit for flit 146805
Requeued flit 146805
1
Received nack credit for flit 201865
Requeued flit 201865
3
Received nack credit for flit 197062
Requeued flit 197062
1
Received nack credit for flit 204324
Requeued flit 204324
1
Received nack credit for flit 193242
Requeued flit 193242
5
Received nack credit for flit 187060
Requeued flit 187060
1
Received nack credit for flit 212617
Requeued flit 212617
3
Received nack credit for flit 205951
Requeued flit 205951
6
Received nack credit for flit 176259
Requeued flit 176259
1
Received nack credit for flit 220016
Requeued flit 220016
1
Received nack credit for flit 222216
Requeued flit 222216
3
Received nack credit for flit 215866
Requeued flit 215866
1
Received nack credit for flit 225839
Requeued flit 225839
2
Received nack credit for flit 226347
Requeued flit 226347
8
Received nack credit for flit 205107
Requeued flit 205107
1
Received nack credit for flit 230700
Requeued flit 230700
10
Received nack credit for flit 171371
Requeued flit 171371
7
Received nack credit for flit 187384
Requeued flit 187384
3
Received nack credit for flit 232966
Requeued flit 232966
6
Received nack credit for flit 187165
Requeued flit 187165
2
Received nack credit for flit 239064
Requeued flit 239064
1
Received nack credit for flit 240243
Requeued flit 240243
2
Received nack credit for flit 221088
Requeued flit 221088
5
Received nack credit for flit 182935
Requeued flit 182935
1
Received nack credit for flit 235723
Requeued flit 235723
6
Received nack credit for flit 200919
Requeued flit 200919
1
Received nack credit for flit 247669
Requeued flit 247669
6
Received nack credit for flit 193144
Requeued flit 193144
2
Received nack credit for flit 249254
Requeued flit 249254
2
Received nack credit for flit 250745
Requeued flit 250745
3
Received nack credit for flit 231366
Requeued flit 231366
2
Received nack credit for flit 241417
Requeued flit 241417
1
Received nack credit for flit 262562
Requeued flit 262562
5
Received nack credit for flit 202290
Requeued flit 202290
1
Received nack credit for flit 252236
Requeued flit 252236
1
Received nack credit for flit 260876
Requeued flit 260876
3
5
Received nack credit for flit 221405
Requeued flit 221405
Received nack credit for flit 203805
Requeued flit 203805
5
Received nack credit for flit 215129
Requeued flit 215129
1
Received nack credit for flit 250583
Requeued flit 250583
2
Received nack credit for flit 245687
Requeued flit 245687
4
Received nack credit for flit 235492
Requeued flit 235492
1
Received nack credit for flit 269569
Requeued flit 269569
1
Received nack credit for flit 281691
Requeued flit 281691
1
Received nack credit for flit 281689
Requeued flit 281689
4
Received nack credit for flit 223339
Requeued flit 223339
8
2
Received nack credit for flit 209861
Requeued flit 209861
Received nack credit for flit 283487
Requeued flit 283487
1
Received nack credit for flit 284446
Requeued flit 284446
2
Received nack credit for flit 286061
Requeued flit 286061
2
Received nack credit for flit 245500
Requeued flit 245500
5
Received nack credit for flit 248996
Requeued flit 248996
6
Received nack credit for flit 225952
Requeued flit 225952
6
Received nack credit for flit 224007
Requeued flit 224007
7
Received nack credit for flit 274537
Requeued flit 274537
3
Received nack credit for flit 235659
Requeued flit 235659
6
Received nack credit for flit 238628
Requeued flit 238628
1
5
Received nack credit for flit 302139
Requeued flit 302139
Received nack credit for flit 281439
Requeued flit 281439
4
Received nack credit for flit 232872
Requeued flit 232872
2
Received nack credit for flit 304236
Requeued flit 304236
1
Received nack credit for flit 286079
Requeued flit 286079
2
2
Received nack credit for flit 266955
Requeued flit 266955
Received nack credit for flit 307383
Requeued flit 307383
4
Received nack credit for flit 238224
Requeued flit 238224
1
Received nack credit for flit 315022
Requeued flit 315022
8
4
5
Received nack credit for flit 270384
Requeued flit 270384
Received nack credit for flit 315093
Requeued flit 315093
Received nack credit for flit 238098
Requeued flit 238098
5
Received nack credit for flit 254343
Requeued flit 254343
4
Received nack credit for flit 280433
Requeued flit 280433
5
Received nack credit for flit 288267
Requeued flit 288267
10
Received nack credit for flit 250863
Requeued flit 250863
8
Received nack credit for flit 273096
Requeued flit 273096
1
Received nack credit for flit 324593
Requeued flit 324593
1
Received nack credit for flit 325981
Requeued flit 325981
1
Received nack credit for flit 326057
Requeued flit 326057
1
Received nack credit for flit 330615
Requeued flit 330615
2
Received nack credit for flit 302723
Requeued flit 302723
5
Received nack credit for flit 332444
Requeued flit 332444
11
Received nack credit for flit 244721
Requeued flit 244721
3
Received nack credit for flit 255988
Requeued flit 255988
2
Received nack credit for flit 303049
Requeued flit 303049
2
8
Received nack credit for flit 344688
Requeued flit 344688
Received nack credit for flit 295725
Requeued flit 295725
5
2
Received nack credit for flit 261586
Requeued flit 261586
Received nack credit for flit 345127
Requeued flit 345127
1
Received nack credit for flit 330809
Requeued flit 330809
4
4
Received nack credit for flit 353580
Requeued flit 353580
Received nack credit for flit 311930
Requeued flit 311930
7
Received nack credit for flit 308063
Requeued flit 308063
1
Received nack credit for flit 342983
Requeued flit 342983
4
Received nack credit for flit 294854
Requeued flit 294854
Class 0:
Packet latency average = 651.291
	minimum = 5
	maximum = 3440
Network latency average = 651.283
	minimum = 5
	maximum = 3440
Slowest packet = 246624
Flit latency average = 651.283
	minimum = 5
	maximum = 3440
Slowest flit = 246624
Fragmentation average = 0
	minimum = 0
	maximum = 0
Injected packet rate average = 0.593227
	minimum = 0.567 (at node 17)
	maximum = 0.6096 (at node 50)
Accepted packet rate average = 0.511428
	minimum = 0.4935 (at node 36)
	maximum = 0.5281 (at node 14)
Injected flit rate average = 0.593227
	minimum = 0.567 (at node 17)
	maximum = 0.6096 (at node 50)
Accepted flit rate average= 0.511428
	minimum = 0.4935 (at node 36)
	maximum = 0.5281 (at node 14)
Injected packet length average = 1
Accepted packet length average = 1
Total in-flight flits = 52360 (0 measured)
latency change    = 1
throughput change = 1
Average latency for class 0 exceeded 500 cycles. Aborting simulation.
Too many sample periods needed to converge
Simulation unstable, ending ...
Total run time 55.9487
