BEGIN Configuration File: examples/ecc_mesh88_config_1_0.350_link_4
// $Id$

// Copyright (c) 2007-2015, Trustees of The Leland Stanford Junior University
// All rights reserved.
//
// Redistribution and use in source and binary forms, with or without
// modification, are permitted provided that the following conditions are met:
//
// Redistributions of source code must retain the above copyright notice, this
// list of conditions and the following disclaimer.
// Redistributions in binary form must reproduce the above copyright notice,
// this list of conditions and the following disclaimer in the documentation
// and/or other materials provided with the distribution.
//
// THIS SOFTWARE IS PROVIDED BY THE COPYRIGHT HOLDERS AND CONTRIBUTORS "AS IS"
// AND ANY EXPRESS OR IMPLIED WARRANTIES, INCLUDING, BUT NOT LIMITED TO, THE
// IMPLIED WARRANTIES OF MERCHANTABILITY AND FITNESS FOR A PARTICULAR PURPOSE
// ARE DISCLAIMED. IN NO EVENT SHALL THE COPYRIGHT OWNER OR CONTRIBUTORS BE
// LIABLE FOR ANY DIRECT, INDIRECT, INCIDENTAL, SPECIAL, EXEMPLARY, OR
// CONSEQUENTIAL DAMAGES (INCLUDING, BUT NOT LIMITED TO, PROCUREMENT OF
// SUBSTITUTE GOODS OR SERVICES; LOSS OF USE, DATA, OR PROFITS; OR BUSINESS
// INTERRUPTION) HOWEVER CAUSED AND ON ANY THEORY OF LIABILITY, WHETHER IN
// CONTRACT, STRICT LIABILITY, OR TORT (INCLUDING NEGLIGENCE OR OTHERWISE)
// ARISING IN ANY WAY OUT OF THE USE OF THIS SOFTWARE, EVEN IF ADVISED OF THE
// POSSIBILITY OF SUCH DAMAGE.

// Dragonfly
//




vc_buf_size = 256;


wait_for_tail_credit = 0;

//
// Router architecture
//
vc_allocator = separable_input_first; 
sw_allocator = separable_input_first;
alloc_iters  = 1;

credit_delay   = 2;
routing_delay  = 0;
vc_alloc_delay = 1;
sw_alloc_delay = 1;
st_final_delay = 1;

input_speedup     = 1;
output_speedup    = 1;
internal_speedup  = 2.0;


warmup_periods = 3;
sim_count          = 1;

sample_period  = 10000;  


routing_function = dor;
num_vcs     = 2;

priority = none;
traffic       = uniform; 

injection_rate = 0.35;
packet_size = 1;
injection_rate_uses_flits = 1;

topology = mesh;

k  = 8;
n  = 2;

fer = 4;
ecc = link;

watch_out=-;
//watch_file = watch.txt;

ecc = link;

stats_out = examples/ecc_mesh88_config_1_0.350_link_4.m;

END Configuration File: examples/ecc_mesh88_config_1_0.350_link_4
5
5
Received nack credit for flit 455
Requeued flit 455
Received nack credit for flit 577
Requeued flit 577
2
Received nack credit for flit 1647
Requeued flit 1647
2
Received nack credit for flit 2319
Requeued flit 2319
2
Received nack credit for flit 4895
Requeued flit 4895
3
Received nack credit for flit 5561
Requeued flit 5561
1
Received nack credit for flit 6467
Requeued flit 6467
6
Received nack credit for flit 7297
Requeued flit 7297
4
Received nack credit for flit 7613
Requeued flit 7613
2
Received nack credit for flit 8207
Requeued flit 8207
3
Received nack credit for flit 10134
Requeued flit 10134
1
Received nack credit for flit 10464
Requeued flit 10464
8
Received nack credit for flit 13630
Requeued flit 13630
1
Received nack credit for flit 16594
Requeued flit 16594
2
Received nack credit for flit 17784
Requeued flit 17784
2
Received nack credit for flit 20914
Requeued flit 20914
7
Received nack credit for flit 21418
Requeued flit 21418
3
Received nack credit for flit 29189
Requeued flit 29189
2
Received nack credit for flit 29468
Requeued flit 29468
1
1
Received nack credit for flit 37864
Requeued flit 37864
Received nack credit for flit 37872
Requeued flit 37872
7
Received nack credit for flit 38173
Requeued flit 38173
3
Received nack credit for flit 44793
Requeued flit 44793
2
Received nack credit for flit 45643
Requeued flit 45643
6
Received nack credit for flit 46905
Requeued flit 46905
1
Received nack credit for flit 48861
Requeued flit 48861
6
1
Received nack credit for flit 51579
Requeued flit 51579
Received nack credit for flit 51953
Requeued flit 51953
2
Received nack credit for flit 52706
Requeued flit 52706
3
Received nack credit for flit 53009
Requeued flit 53009
1
Received nack credit for flit 55503
Requeued flit 55503
1
Received nack credit for flit 57498
Requeued flit 57498
3
Received nack credit for flit 58940
Requeued flit 58940
4
Received nack credit for flit 60934
Requeued flit 60934
2
Received nack credit for flit 67861
Requeued flit 67861
2
Received nack credit for flit 68438
Requeued flit 68438
1
Received nack credit for flit 70258
Requeued flit 70258
1
Received nack credit for flit 70666
Requeued flit 70666
1
Received nack credit for flit 71272
Requeued flit 71272
10
Received nack credit for flit 70923
Requeued flit 70923
1
Received nack credit for flit 72253
Requeued flit 72253
1
Received nack credit for flit 74552
Requeued flit 74552
1
Received nack credit for flit 78159
Requeued flit 78159
9
1
Received nack credit for flit 77805
Requeued flit 77805
Received nack credit for flit 78514
Requeued flit 78514
6
Received nack credit for flit 78896
Requeued flit 78896
5
Received nack credit for flit 79262
Requeued flit 79262
3
Received nack credit for flit 83405
Requeued flit 83405
1
Received nack credit for flit 83806
Requeued flit 83806
4
Received nack credit for flit 88534
Requeued flit 88534
1
Received nack credit for flit 90209
Requeued flit 90209
10
Received nack credit for flit 95996
Requeued flit 95996
4
Received nack credit for flit 99865
Requeued flit 99865
1
Received nack credit for flit 102440
Requeued flit 102440
7
Received nack credit for flit 102824
Requeued flit 102824
7
Received nack credit for flit 103501
Requeued flit 103501
1
Received nack credit for flit 105987
Requeued flit 105987
8
Received nack credit for flit 106279
Requeued flit 106279
8
Received nack credit for flit 106766
Requeued flit 106766
3
Received nack credit for flit 107999
Requeued flit 107999
6
Received nack credit for flit 109936
Requeued flit 109936
1
Received nack credit for flit 110460
Requeued flit 110460
3
Received nack credit for flit 111365
Requeued flit 111365
2
Received nack credit for flit 112923
Requeued flit 112923
5
Received nack credit for flit 114120
Requeued flit 114120
7
Received nack credit for flit 117894
Requeued flit 117894
8
Received nack credit for flit 119197
Requeued flit 119197
2
Received nack credit for flit 119719
Requeued flit 119719
1
Received nack credit for flit 123729
Requeued flit 123729
4
Received nack credit for flit 124142
Requeued flit 124142
4
Received nack credit for flit 127777
Requeued flit 127777
4
Received nack credit for flit 129142
Requeued flit 129142
8
Received nack credit for flit 129052
Requeued flit 129052
5
Received nack credit for flit 130242
Requeued flit 130242
2
Received nack credit for flit 130793
Requeued flit 130793
3
Received nack credit for flit 132167
Requeued flit 132167
1
Received nack credit for flit 132507
Requeued flit 132507
7
Received nack credit for flit 135870
Requeued flit 135870
6
Received nack credit for flit 136731
Requeued flit 136731
1
Received nack credit for flit 138382
Requeued flit 138382
4
Received nack credit for flit 142182
Requeued flit 142182
1
Received nack credit for flit 143733
Requeued flit 143733
2
Received nack credit for flit 145258
Requeued flit 145258
3
Received nack credit for flit 146582
Requeued flit 146582
3
Received nack credit for flit 149151
Requeued flit 149151
4
Received nack credit for flit 149164
Requeued flit 149164
5
Received nack credit for flit 151149
Requeued flit 151149
3
Received nack credit for flit 152629
Requeued flit 152629
1
Received nack credit for flit 153235
Requeued flit 153235
1
Received nack credit for flit 153796
Requeued flit 153796
1
Received nack credit for flit 156925
Requeued flit 156925
1
Received nack credit for flit 157538
Requeued flit 157538
1
Received nack credit for flit 158046
Requeued flit 158046
1
Received nack credit for flit 162776
Requeued flit 162776
8
Received nack credit for flit 162553
Requeued flit 162553
2
Received nack credit for flit 163982
Requeued flit 163982
5
Received nack credit for flit 164990
Requeued flit 164990
4
Received nack credit for flit 166467
Requeued flit 166467
3
Received nack credit for flit 167277
Requeued flit 167277
3
Received nack credit for flit 175094
Requeued flit 175094
5
Received nack credit for flit 177736
Requeued flit 177736
2
Received nack credit for flit 178541
Requeued flit 178541
2
Received nack credit for flit 181958
Requeued flit 181958
2
Received nack credit for flit 182294
Requeued flit 182294
1
Received nack credit for flit 183076
Requeued flit 183076
11
Received nack credit for flit 182613
Requeued flit 182613
2
Received nack credit for flit 185841
Requeued flit 185841
1
Received nack credit for flit 186127
Requeued flit 186127
8
Received nack credit for flit 187871
Requeued flit 187871
9
Received nack credit for flit 189840
Requeued flit 189840
1
Received nack credit for flit 190687
Requeued flit 190687
2
Received nack credit for flit 190951
Requeued flit 190951
1
Received nack credit for flit 192168
Requeued flit 192168
1
2
Received nack credit for flit 193250
Requeued flit 193250
Received nack credit for flit 193253
Requeued flit 193253
9
Received nack credit for flit 193443
Requeued flit 193443
5
Received nack credit for flit 194325
Requeued flit 194325
3
Received nack credit for flit 199409
Requeued flit 199409
1
Received nack credit for flit 200094
Requeued flit 200094
2
Received nack credit for flit 201183
Requeued flit 201183
3
Received nack credit for flit 206408
Requeued flit 206408
5
2
Received nack credit for flit 207020
Requeued flit 207020
Received nack credit for flit 206790
Requeued flit 206790
1
Received nack credit for flit 210585
Requeued flit 210585
3
Received nack credit for flit 215245
Requeued flit 215245
1
Received nack credit for flit 220131
Requeued flit 220131
7
Received nack credit for flit 221648
Requeued flit 221648
Class 0:
Packet latency average = 22.8235
	minimum = 5
	maximum = 63
Network latency average = 22.8235
	minimum = 5
	maximum = 63
Slowest packet = 85320
Flit latency average = 22.8235
	minimum = 5
	maximum = 63
Slowest flit = 85320
Fragmentation average = 0
	minimum = 0
	maximum = 0
Injected packet rate average = 0.349828
	minimum = 0.3388 (at node 56)
	maximum = 0.3609 (at node 29)
Accepted packet rate average = 0.349006
	minimum = 0.3332 (at node 33)
	maximum = 0.3621 (at node 53)
Injected flit rate average = 0.349828
	minimum = 0.3388 (at node 56)
	maximum = 0.3609 (at node 29)
Accepted flit rate average= 0.349006
	minimum = 0.3332 (at node 33)
	maximum = 0.3621 (at node 53)
Injected packet length average = 1
Accepted packet length average = 1
Total in-flight flits = 526 (0 measured)
latency change    = 1
throughput change = 1
1
Received nack credit for flit 223788
Requeued flit 223788
7
Received nack credit for flit 224286
Requeued flit 224286
5
7
Received nack credit for flit 226147
Requeued flit 226147
Received nack credit for flit 226016
Requeued flit 226016
3
Received nack credit for flit 227349
Requeued flit 227349
4
Received nack credit for flit 227578
Requeued flit 227578
1
Received nack credit for flit 228058
Requeued flit 228058
3
Received nack credit for flit 228437
Requeued flit 228437
3
Received nack credit for flit 230581
Requeued flit 230581
1
Received nack credit for flit 231876
Requeued flit 231876
1
Received nack credit for flit 233673
Requeued flit 233673
1
Received nack credit for flit 235479
Requeued flit 235479
4
Received nack credit for flit 236227
Requeued flit 236227
5
Received nack credit for flit 236879
Requeued flit 236879
1
Received nack credit for flit 239516
Requeued flit 239516
1
Received nack credit for flit 241316
Requeued flit 241316
3
4
Received nack credit for flit 242600
Requeued flit 242600
Received nack credit for flit 242614
Requeued flit 242614
1
Received nack credit for flit 246829
Requeued flit 246829
4
Received nack credit for flit 248600
Requeued flit 248600
12
Received nack credit for flit 250134
Requeued flit 250134
2
Received nack credit for flit 252640
Requeued flit 252640
4
2
Received nack credit for flit 252889
Requeued flit 252889
Received nack credit for flit 253073
Requeued flit 253073
1
Received nack credit for flit 253368
Requeued flit 253368
2
Received nack credit for flit 253576
Requeued flit 253576
8
Received nack credit for flit 256960
Requeued flit 256960
6
Received nack credit for flit 258125
Requeued flit 258125
9
Received nack credit for flit 260069
Requeued flit 260069
8
Received nack credit for flit 260781
Requeued flit 260781
1
Received nack credit for flit 262278
Requeued flit 262278
6
Received nack credit for flit 264471
Requeued flit 264471
9
Received nack credit for flit 264858
Requeued flit 264858
1
Received nack credit for flit 267734
Requeued flit 267734
2
Received nack credit for flit 268335
Requeued flit 268335
3
Received nack credit for flit 268465
Requeued flit 268465
1
Received nack credit for flit 269151
Requeued flit 269151
5
Received nack credit for flit 271356
Requeued flit 271356
5
Received nack credit for flit 272757
Requeued flit 272757
2
Received nack credit for flit 275148
Requeued flit 275148
6
Received nack credit for flit 276177
Requeued flit 276177
7
8
Received nack credit for flit 276384
Requeued flit 276384
Received nack credit for flit 276599
Requeued flit 276599
1
Received nack credit for flit 278163
Requeued flit 278163
5
Received nack credit for flit 280174
Requeued flit 280174
1
2
Received nack credit for flit 284450
Requeued flit 284450
Received nack credit for flit 284379
Requeued flit 284379
2
Received nack credit for flit 285104
Requeued flit 285104
1
Received nack credit for flit 289672
Requeued flit 289672
6
Received nack credit for flit 289698
Requeued flit 289698
4
Received nack credit for flit 293858
Requeued flit 293858
1
Received nack credit for flit 295321
Requeued flit 295321
3
Received nack credit for flit 295456
Requeued flit 295456
5
Received nack credit for flit 300359
Requeued flit 300359
2
Received nack credit for flit 301525
Requeued flit 301525
1
Received nack credit for flit 301893
Requeued flit 301893
3
Received nack credit for flit 303686
Requeued flit 303686
1
Received nack credit for flit 304476
Requeued flit 304476
3
Received nack credit for flit 306604
Requeued flit 306604
1
Received nack credit for flit 307419
Requeued flit 307419
6
Received nack credit for flit 308390
Requeued flit 308390
2
Received nack credit for flit 309608
Requeued flit 309608
2
Received nack credit for flit 310008
Requeued flit 310008
1
Received nack credit for flit 313190
Requeued flit 313190
2
Received nack credit for flit 316622
Requeued flit 316622
7
Received nack credit for flit 318500
Requeued flit 318500
5
Received nack credit for flit 320778
Requeued flit 320778
7
Received nack credit for flit 321858
Requeued flit 321858
1
Received nack credit for flit 327609
Requeued flit 327609
4
2
Received nack credit for flit 328384
Requeued flit 328384
Received nack credit for flit 328505
Requeued flit 328505
1
Received nack credit for flit 329255
Requeued flit 329255
6
Received nack credit for flit 329578
Requeued flit 329578
1
Received nack credit for flit 330294
Requeued flit 330294
2
Received nack credit for flit 331008
Requeued flit 331008
7
Received nack credit for flit 331809
Requeued flit 331809
1
Received nack credit for flit 333010
Requeued flit 333010
5
Received nack credit for flit 333722
Requeued flit 333722
1
Received nack credit for flit 341538
Requeued flit 341538
10
Received nack credit for flit 345374
Requeued flit 345374
2
Received nack credit for flit 346355
Requeued flit 346355
2
Received nack credit for flit 352718
Requeued flit 352718
4
Received nack credit for flit 352852
Requeued flit 352852
3
Received nack credit for flit 359034
Requeued flit 359034
6
Received nack credit for flit 359270
Requeued flit 359270
2
3
Received nack credit for flit 359830
Requeued flit 359830
Received nack credit for flit 359769
Requeued flit 359769
4
Received nack credit for flit 360644
Requeued flit 360644
5
Received nack credit for flit 361074
Requeued flit 361074
8
6
Received nack credit for flit 367001
Requeued flit 367001
Received nack credit for flit 367231
Requeued flit 367231
2
Received nack credit for flit 368965
Requeued flit 368965
1
Received nack credit for flit 369840
Requeued flit 369840
6
3
Received nack credit for flit 370744
Requeued flit 370744
Received nack credit for flit 370908
Requeued flit 370908
1
Received nack credit for flit 373082
Requeued flit 373082
3
Received nack credit for flit 373450
Requeued flit 373450
13
Received nack credit for flit 373030
Requeued flit 373030
3
Received nack credit for flit 374039
Requeued flit 374039
1
Received nack credit for flit 374709
Requeued flit 374709
1
Received nack credit for flit 376634
Requeued flit 376634
6
Received nack credit for flit 376658
Requeued flit 376658
5
Received nack credit for flit 377002
Requeued flit 377002
1
3
Received nack credit for flit 377471
Requeued flit 377471
Received nack credit for flit 377497
Requeued flit 377497
6
Received nack credit for flit 380988
Requeued flit 380988
2
Received nack credit for flit 386916
Requeued flit 386916
1
Received nack credit for flit 388352
Requeued flit 388352
3
Received nack credit for flit 389781
Requeued flit 389781
5
Received nack credit for flit 390491
Requeued flit 390491
2
Received nack credit for flit 402814
Requeued flit 402814
1
Received nack credit for flit 403959
Requeued flit 403959
1
Received nack credit for flit 405810
Requeued flit 405810
1
Received nack credit for flit 408903
Requeued flit 408903
1
Received nack credit for flit 409754
Requeued flit 409754
5
Received nack credit for flit 410252
Requeued flit 410252
11
Received nack credit for flit 410865
Requeued flit 410865
4
Received nack credit for flit 411970
Requeued flit 411970
4
Received nack credit for flit 414387
Requeued flit 414387
3
Received nack credit for flit 414818
Requeued flit 414818
12
Received nack credit for flit 418450
Requeued flit 418450
3
Received nack credit for flit 420955
Requeued flit 420955
3
Received nack credit for flit 421985
Requeued flit 421985
3
Received nack credit for flit 422370
Requeued flit 422370
1
Received nack credit for flit 424238
Requeued flit 424238
2
Received nack credit for flit 425011
Requeued flit 425011
1
Received nack credit for flit 430028
Requeued flit 430028
7
Received nack credit for flit 429759
Requeued flit 429759
1
Received nack credit for flit 432915
Requeued flit 432915
5
Received nack credit for flit 432903
Requeued flit 432903
7
Received nack credit for flit 436736
Requeued flit 436736
1
Received nack credit for flit 437476
Requeued flit 437476
1
Received nack credit for flit 438149
Requeued flit 438149
3
Received nack credit for flit 440903
Requeued flit 440903
4
Received nack credit for flit 442648
Requeued flit 442648
1
Received nack credit for flit 446498
Requeued flit 446498
2
Received nack credit for flit 447198
Requeued flit 447198
3
Received nack credit for flit 447265
Requeued flit 447265
Class 0:
Packet latency average = 22.8238
	minimum = 5
	maximum = 70
Network latency average = 22.8238
	minimum = 5
	maximum = 70
Slowest packet = 394570
Flit latency average = 22.8238
	minimum = 5
	maximum = 70
Slowest flit = 394570
Fragmentation average = 0
	minimum = 0
	maximum = 0
Injected packet rate average = 0.349932
	minimum = 0.34125 (at node 51)
	maximum = 0.3578 (at node 34)
Accepted packet rate average = 0.349541
	minimum = 0.3403 (at node 31)
	maximum = 0.359 (at node 28)
Injected flit rate average = 0.349932
	minimum = 0.34125 (at node 51)
	maximum = 0.3578 (at node 34)
Accepted flit rate average= 0.349541
	minimum = 0.3403 (at node 31)
	maximum = 0.359 (at node 28)
Injected packet length average = 1
Accepted packet length average = 1
Total in-flight flits = 500 (0 measured)
latency change    = 1.55624e-05
throughput change = 0.00153102
3
Received nack credit for flit 448714
Requeued flit 448714
7
Received nack credit for flit 449396
Requeued flit 449396
1
Received nack credit for flit 454363
Requeued flit 454363
4
Received nack credit for flit 456018
Requeued flit 456018
1
Received nack credit for flit 456759
Requeued flit 456759
5
Received nack credit for flit 456786
Requeued flit 456786
7
Received nack credit for flit 460591
Requeued flit 460591
5
Received nack credit for flit 461383
Requeued flit 461383
4
8
Received nack credit for flit 468757
Requeued flit 468757
Received nack credit for flit 468443
Requeued flit 468443
7
Received nack credit for flit 469586
Requeued flit 469586
3
Received nack credit for flit 472527
Requeued flit 472527
8
Received nack credit for flit 473014
Requeued flit 473014
2
1
Received nack credit for flit 473584
Requeued flit 473584
Received nack credit for flit 473746
Requeued flit 473746
6
Received nack credit for flit 474363
Requeued flit 474363
1
Received nack credit for flit 476595
Requeued flit 476595
7
Received nack credit for flit 477030
Requeued flit 477030
5
Received nack credit for flit 478978
Requeued flit 478978
4
Received nack credit for flit 481369
Requeued flit 481369
1
Received nack credit for flit 482629
Requeued flit 482629
2
Received nack credit for flit 482888
Requeued flit 482888
10
Received nack credit for flit 483739
Requeued flit 483739
6
Received nack credit for flit 484530
Requeued flit 484530
3
8
Received nack credit for flit 485043
Requeued flit 485043
Received nack credit for flit 485397
Requeued flit 485397
1
Received nack credit for flit 487129
Requeued flit 487129
3
Received nack credit for flit 494404
Requeued flit 494404
3
Received nack credit for flit 495274
Requeued flit 495274
2
Received nack credit for flit 497069
Requeued flit 497069
2
Received nack credit for flit 497457
Requeued flit 497457
5
Received nack credit for flit 499689
Requeued flit 499689
1
Received nack credit for flit 507586
Requeued flit 507586
1
Received nack credit for flit 510454
Requeued flit 510454
1
Received nack credit for flit 511810
Requeued flit 511810
3
Received nack credit for flit 516471
Requeued flit 516471
6
Received nack credit for flit 516273
Requeued flit 516273
4
Received nack credit for flit 517851
Requeued flit 517851
1
Received nack credit for flit 522802
Requeued flit 522802
1
Received nack credit for flit 527257
Requeued flit 527257
8
Received nack credit for flit 527006
Requeued flit 527006
4
Received nack credit for flit 528365
Requeued flit 528365
3
Received nack credit for flit 529917
Requeued flit 529917
4
Received nack credit for flit 530032
Requeued flit 530032
1
Received nack credit for flit 531921
Requeued flit 531921
4
Received nack credit for flit 532554
Requeued flit 532554
8
Received nack credit for flit 532915
Requeued flit 532915
1
Received nack credit for flit 539391
Requeued flit 539391
3
Received nack credit for flit 540442
Requeued flit 540442
1
Received nack credit for flit 541595
Requeued flit 541595
1
Received nack credit for flit 542396
Requeued flit 542396
1
Received nack credit for flit 543011
Requeued flit 543011
4
Received nack credit for flit 548037
Requeued flit 548037
9
Received nack credit for flit 548008
Requeued flit 548008
6
Received nack credit for flit 549623
Requeued flit 549623
4
Received nack credit for flit 550657
Requeued flit 550657
1
Received nack credit for flit 551587
Requeued flit 551587
4
Received nack credit for flit 553837
Requeued flit 553837
2
Received nack credit for flit 556854
Requeued flit 556854
2
3
Received nack credit for flit 561303
Requeued flit 561303
Received nack credit for flit 561335
Requeued flit 561335
4
Received nack credit for flit 561930
Requeued flit 561930
1
Received nack credit for flit 563118
Requeued flit 563118
2
Received nack credit for flit 563305
Requeued flit 563305
1
Received nack credit for flit 568423
Requeued flit 568423
2
Received nack credit for flit 568703
Requeued flit 568703
4
3
Received nack credit for flit 571068
Requeued flit 571068
Received nack credit for flit 571135
Requeued flit 571135
1
Received nack credit for flit 575043
Requeued flit 575043
1
Received nack credit for flit 575795
Requeued flit 575795
5
Received nack credit for flit 576674
Requeued flit 576674
2
Received nack credit for flit 577450
Requeued flit 577450
2
Received nack credit for flit 578302
Requeued flit 578302
1
Received nack credit for flit 581477
Requeued flit 581477
4
Received nack credit for flit 586397
Requeued flit 586397
1
Received nack credit for flit 588260
Requeued flit 588260
1
Received nack credit for flit 588539
Requeued flit 588539
2
4
Received nack credit for flit 588828
Requeued flit 588828
Received nack credit for flit 588694
Requeued flit 588694
6
Received nack credit for flit 590511
Requeued flit 590511
4
Received nack credit for flit 591141
Requeued flit 591141
1
Received nack credit for flit 592535
Requeued flit 592535
1
Received nack credit for flit 593156
Requeued flit 593156
1
Received nack credit for flit 594640
Requeued flit 594640
2
Received nack credit for flit 596836
Requeued flit 596836
1
Received nack credit for flit 597810
Requeued flit 597810
1
Received nack credit for flit 598138
Requeued flit 598138
1
Received nack credit for flit 602691
Requeued flit 602691
6
Received nack credit for flit 605690
Requeued flit 605690
10
Received nack credit for flit 607705
Requeued flit 607705
8
Received nack credit for flit 608696
Requeued flit 608696
1
Received nack credit for flit 610125
Requeued flit 610125
4
Received nack credit for flit 613809
Requeued flit 613809
1
2
Received nack credit for flit 614598
Requeued flit 614598
Received nack credit for flit 614583
Requeued flit 614583
1
Received nack credit for flit 615214
Requeued flit 615214
7
1
Received nack credit for flit 617618
Requeued flit 617618
Received nack credit for flit 617988
Requeued flit 617988
6
Received nack credit for flit 619184
Requeued flit 619184
3
Received nack credit for flit 621874
Requeued flit 621874
4
Received nack credit for flit 622591
Requeued flit 622591
1
Received nack credit for flit 626923
Requeued flit 626923
5
1
Received nack credit for flit 627042
Requeued flit 627042
Received nack credit for flit 627398
Requeued flit 627398
1
Received nack credit for flit 628017
Requeued flit 628017
3
Received nack credit for flit 629409
Requeued flit 629409
5
Received nack credit for flit 630992
Requeued flit 630992
6
Received nack credit for flit 631601
Requeued flit 631601
6
Received nack credit for flit 633156
Requeued flit 633156
2
Received nack credit for flit 634903
Requeued flit 634903
1
2
Received nack credit for flit 635291
Requeued flit 635291
Received nack credit for flit 635183
Requeued flit 635183
1
Received nack credit for flit 637216
Requeued flit 637216
3
Received nack credit for flit 637486
Requeued flit 637486
7
Received nack credit for flit 638349
Requeued flit 638349
3
Received nack credit for flit 639193
Requeued flit 639193
3
Received nack credit for flit 640822
Requeued flit 640822
8
Received nack credit for flit 640586
Requeued flit 640586
1
Received nack credit for flit 643492
Requeued flit 643492
1
Received nack credit for flit 644184
Requeued flit 644184
11
Received nack credit for flit 646345
Requeued flit 646345
1
Received nack credit for flit 647350
Requeued flit 647350
1
Received nack credit for flit 648903
Requeued flit 648903
3
Received nack credit for flit 650267
Requeued flit 650267
2
Received nack credit for flit 650877
Requeued flit 650877
1
Received nack credit for flit 653709
Requeued flit 653709
1
Received nack credit for flit 654012
Requeued flit 654012
5
Received nack credit for flit 660896
Requeued flit 660896
3
Received nack credit for flit 662163
Requeued flit 662163
1
1
Received nack credit for flit 662692
Requeued flit 662692
Received nack credit for flit 662586
Requeued flit 662586
1
Received nack credit for flit 664864
Requeued flit 664864
1
Received nack credit for flit 667625
Requeued flit 667625
5
Received nack credit for flit 669353
Requeued flit 669353
Class 0:
Packet latency average = 22.8411
	minimum = 5
	maximum = 68
Network latency average = 22.8411
	minimum = 5
	maximum = 68
Slowest packet = 642476
Flit latency average = 22.8411
	minimum = 5
	maximum = 68
Slowest flit = 642476
Fragmentation average = 0
	minimum = 0
	maximum = 0
Injected packet rate average = 0.349762
	minimum = 0.3379 (at node 21)
	maximum = 0.3616 (at node 59)
Accepted packet rate average = 0.349745
	minimum = 0.3349 (at node 58)
	maximum = 0.3623 (at node 3)
Injected flit rate average = 0.349762
	minimum = 0.3379 (at node 21)
	maximum = 0.3616 (at node 59)
Accepted flit rate average= 0.349745
	minimum = 0.3349 (at node 58)
	maximum = 0.3623 (at node 3)
Injected packet length average = 1
Accepted packet length average = 1
Total in-flight flits = 511 (0 measured)
latency change    = 0.000755766
throughput change = 0.000583014
Warmed up ...Time used is 30000 cycles
8
Received nack credit for flit 673474
Requeued flit 673474
2
1
Received nack credit for flit 674511
Requeued flit 674511
Received nack credit for flit 674688
Requeued flit 674688
2
Received nack credit for flit 678038
Requeued flit 678038
4
Received nack credit for flit 678520
Requeued flit 678520
5
Received nack credit for flit 681925
Requeued flit 681925
4
Received nack credit for flit 682792
Requeued flit 682792
1
Received nack credit for flit 684148
Requeued flit 684148
3
1
Received nack credit for flit 684487
Requeued flit 684487
Received nack credit for flit 684639
Requeued flit 684639
3
Received nack credit for flit 686236
Requeued flit 686236
6
Received nack credit for flit 688217
Requeued flit 688217
2
Received nack credit for flit 690028
Requeued flit 690028
3
Received nack credit for flit 690824
Requeued flit 690824
5
Received nack credit for flit 691283
Requeued flit 691283
5
Received nack credit for flit 692985
Requeued flit 692985
2
Received nack credit for flit 696875
Requeued flit 696875
7
Received nack credit for flit 697639
Requeued flit 697639
3
1
Received nack credit for flit 698232
Requeued flit 698232
Received nack credit for flit 698429
Requeued flit 698429
1
Received nack credit for flit 699114
Requeued flit 699114
9
Received nack credit for flit 700075
Requeued flit 700075
1
Received nack credit for flit 700982
Requeued flit 700982
1
Received nack credit for flit 702766
Requeued flit 702766
1
Received nack credit for flit 703312
Requeued flit 703312
4
Received nack credit for flit 704295
Requeued flit 704295
1
Received nack credit for flit 706395
Requeued flit 706395
4
5
Received nack credit for flit 707625
Requeued flit 707625
Received nack credit for flit 707647
Requeued flit 707647
3
Received nack credit for flit 708717
Requeued flit 708717
1
Received nack credit for flit 710643
Requeued flit 710643
1
Received nack credit for flit 710929
Requeued flit 710929
6
Received nack credit for flit 712135
Requeued flit 712135
1
Received nack credit for flit 713123
Requeued flit 713123
1
Received nack credit for flit 717317
Requeued flit 717317
6
Received nack credit for flit 721745
Requeued flit 721745
2
Received nack credit for flit 727316
Requeued flit 727316
2
Received nack credit for flit 729730
Requeued flit 729730
2
Received nack credit for flit 730430
Requeued flit 730430
6
Received nack credit for flit 732357
Requeued flit 732357
2
Received nack credit for flit 743422
Requeued flit 743422
3
Received nack credit for flit 744296
Requeued flit 744296
3
Received nack credit for flit 745867
Requeued flit 745867
2
Received nack credit for flit 749603
Requeued flit 749603
1
Received nack credit for flit 750614
Requeued flit 750614
1
Received nack credit for flit 751152
Requeued flit 751152
5
Received nack credit for flit 751905
Requeued flit 751905
7
10
Received nack credit for flit 753962
Requeued flit 753962
Received nack credit for flit 753712
Requeued flit 753712
5
Received nack credit for flit 758981
Requeued flit 758981
7
Received nack credit for flit 763739
Requeued flit 763739
3
Received nack credit for flit 764941
Requeued flit 764941
1
Received nack credit for flit 766367
Requeued flit 766367
6
Received nack credit for flit 766625
Requeued flit 766625
2
Received nack credit for flit 771722
Requeued flit 771722
3
Received nack credit for flit 772966
Requeued flit 772966
3
Received nack credit for flit 773503
Requeued flit 773503
3
Received nack credit for flit 774571
Requeued flit 774571
4
Received nack credit for flit 775660
Requeued flit 775660
4
Received nack credit for flit 778395
Requeued flit 778395
1
Received nack credit for flit 781418
Requeued flit 781418
4
Received nack credit for flit 781315
Requeued flit 781315
6
Received nack credit for flit 787825
Requeued flit 787825
11
Received nack credit for flit 787759
Requeued flit 787759
3
Received nack credit for flit 788734
Requeued flit 788734
1
Received nack credit for flit 789390
Requeued flit 789390
1
Received nack credit for flit 790084
Requeued flit 790084
2
Received nack credit for flit 790634
Requeued flit 790634
6
Received nack credit for flit 791225
Requeued flit 791225
9
6
Received nack credit for flit 791527
Requeued flit 791527
Received nack credit for flit 791742
Requeued flit 791742
1
4
Received nack credit for flit 792389
Requeued flit 792389
Received nack credit for flit 792629
Requeued flit 792629
2
Received nack credit for flit 794132
Requeued flit 794132
1
Received nack credit for flit 794977
Requeued flit 794977
1
Received nack credit for flit 798665
Requeued flit 798665
1
Received nack credit for flit 800179
Requeued flit 800179
4
Received nack credit for flit 803098
Requeued flit 803098
1
Received nack credit for flit 804535
Requeued flit 804535
3
Received nack credit for flit 806395
Requeued flit 806395
2
1
Received nack credit for flit 808436
Requeued flit 808436
Received nack credit for flit 808611
Requeued flit 808611
3
Received nack credit for flit 810278
Requeued flit 810278
2
Received nack credit for flit 811104
Requeued flit 811104
5
Received nack credit for flit 812039
Requeued flit 812039
1
Received nack credit for flit 813814
Requeued flit 813814
6
Received nack credit for flit 813940
Requeued flit 813940
1
Received nack credit for flit 814751
Requeued flit 814751
1
Received nack credit for flit 816980
Requeued flit 816980
1
Received nack credit for flit 819786
Requeued flit 819786
5
2
Received nack credit for flit 819865
Requeued flit 819865
Received nack credit for flit 820121
Requeued flit 820121
2
Received nack credit for flit 821836
Requeued flit 821836
6
Received nack credit for flit 822340
Requeued flit 822340
2
Received nack credit for flit 823579
Requeued flit 823579
5
Received nack credit for flit 827030
Requeued flit 827030
2
Received nack credit for flit 827416
Requeued flit 827416
1
Received nack credit for flit 827945
Requeued flit 827945
1
Received nack credit for flit 828080
Requeued flit 828080
3
Received nack credit for flit 832105
Requeued flit 832105
1
Received nack credit for flit 832648
Requeued flit 832648
2
Received nack credit for flit 833635
Requeued flit 833635
3
Received nack credit for flit 833769
Requeued flit 833769
5
Received nack credit for flit 837980
Requeued flit 837980
1
Received nack credit for flit 838881
Requeued flit 838881
2
Received nack credit for flit 839915
Requeued flit 839915
1
Received nack credit for flit 840300
Requeued flit 840300
1
Received nack credit for flit 842326
Requeued flit 842326
4
Received nack credit for flit 845161
Requeued flit 845161
8
Received nack credit for flit 845919
Requeued flit 845919
4
Received nack credit for flit 850715
Requeued flit 850715
4
Received nack credit for flit 856558
Requeued flit 856558
3
Received nack credit for flit 858900
Requeued flit 858900
1
Received nack credit for flit 864555
Requeued flit 864555
1
Received nack credit for flit 865122
Requeued flit 865122
9
Received nack credit for flit 866918
Requeued flit 866918
6
Received nack credit for flit 867472
Requeued flit 867472
1
Received nack credit for flit 868639
Requeued flit 868639
3
Received nack credit for flit 870033
Requeued flit 870033
1
Received nack credit for flit 872749
Requeued flit 872749
6
3
Received nack credit for flit 872988
Requeued flit 872988
Received nack credit for flit 872731
Requeued flit 872731
1
Received nack credit for flit 874365
Requeued flit 874365
4
Received nack credit for flit 874812
Requeued flit 874812
5
Received nack credit for flit 876130
Requeued flit 876130
7
Received nack credit for flit 876437
Requeued flit 876437
5
Received nack credit for flit 877982
Requeued flit 877982
7
Received nack credit for flit 880333
Requeued flit 880333
1
Received nack credit for flit 881745
Requeued flit 881745
1
Received nack credit for flit 883866
Requeued flit 883866
9
1
Received nack credit for flit 886919
Requeued flit 886919
Received nack credit for flit 887602
Requeued flit 887602
1
Received nack credit for flit 887760
Requeued flit 887760
7
Received nack credit for flit 890291
Requeued flit 890291
10
Received nack credit for flit 894254
Requeued flit 894254
Class 0:
Packet latency average = 22.7719
	minimum = 5
	maximum = 65
Network latency average = 22.7719
	minimum = 5
	maximum = 65
Slowest packet = 864567
Flit latency average = 22.7796
	minimum = 5
	maximum = 65
Slowest flit = 864567
Fragmentation average = 0
	minimum = 0
	maximum = 0
Injected packet rate average = 0.3495
	minimum = 0.3409 (at node 30)
	maximum = 0.3608 (at node 17)
Accepted packet rate average = 0.349467
	minimum = 0.3344 (at node 38)
	maximum = 0.3633 (at node 15)
Injected flit rate average = 0.3495
	minimum = 0.3409 (at node 30)
	maximum = 0.3608 (at node 17)
Accepted flit rate average= 0.349467
	minimum = 0.3344 (at node 38)
	maximum = 0.3633 (at node 15)
Injected packet length average = 1
Accepted packet length average = 1
Total in-flight flits = 532 (532 measured)
latency change    = 0.00303955
throughput change = 0.000795854
1
Received nack credit for flit 895546
Requeued flit 895546
1
Received nack credit for flit 896671
Requeued flit 896671
1
Received nack credit for flit 897777
Requeued flit 897777
1
Received nack credit for flit 899458
Requeued flit 899458
1
Received nack credit for flit 902930
Requeued flit 902930
5
Received nack credit for flit 905289
Requeued flit 905289
4
Received nack credit for flit 906462
Requeued flit 906462
1
1
Received nack credit for flit 907051
Requeued flit 907051
Received nack credit for flit 907114
Requeued flit 907114
1
Received nack credit for flit 912241
Requeued flit 912241
6
Received nack credit for flit 913176
Requeued flit 913176
4
Received nack credit for flit 917656
Requeued flit 917656
2
Received nack credit for flit 918591
Requeued flit 918591
3
4
Received nack credit for flit 918662
Requeued flit 918662
Received nack credit for flit 918880
Requeued flit 918880
6
Received nack credit for flit 919303
Requeued flit 919303
1
Received nack credit for flit 920024
Requeued flit 920024
4
Received nack credit for flit 921982
Requeued flit 921982
2
Received nack credit for flit 923990
Requeued flit 923990
1
Received nack credit for flit 925500
Requeued flit 925500
2
Received nack credit for flit 927553
Requeued flit 927553
2
Received nack credit for flit 928005
Requeued flit 928005
5
Received nack credit for flit 932855
Requeued flit 932855
1
Received nack credit for flit 934001
Requeued flit 934001
1
Received nack credit for flit 934726
Requeued flit 934726
6
Received nack credit for flit 938104
Requeued flit 938104
1
Received nack credit for flit 940032
Requeued flit 940032
3
3
Received nack credit for flit 941735
Requeued flit 941735
Received nack credit for flit 941879
Requeued flit 941879
1
Received nack credit for flit 944069
Requeued flit 944069
4
Received nack credit for flit 948866
Requeued flit 948866
2
Received nack credit for flit 949249
Requeued flit 949249
2
Received nack credit for flit 949772
Requeued flit 949772
4
Received nack credit for flit 951735
Requeued flit 951735
1
Received nack credit for flit 953884
Requeued flit 953884
2
Received nack credit for flit 955107
Requeued flit 955107
1
Received nack credit for flit 955525
Requeued flit 955525
1
Received nack credit for flit 955861
Requeued flit 955861
1
Received nack credit for flit 957383
Requeued flit 957383
1
Received nack credit for flit 959079
Requeued flit 959079
2
Received nack credit for flit 959556
Requeued flit 959556
9
Received nack credit for flit 961103
Requeued flit 961103
3
Received nack credit for flit 961742
Requeued flit 961742
7
Received nack credit for flit 962352
Requeued flit 962352
4
Received nack credit for flit 963520
Requeued flit 963520
3
Received nack credit for flit 964303
Requeued flit 964303
3
Received nack credit for flit 966220
Requeued flit 966220
2
Received nack credit for flit 969311
Requeued flit 969311
1
Received nack credit for flit 974012
Requeued flit 974012
3
Received nack credit for flit 974661
Requeued flit 974661
4
Received nack credit for flit 976256
Requeued flit 976256
5
Received nack credit for flit 976426
Requeued flit 976426
2
Received nack credit for flit 977082
Requeued flit 977082
7
Received nack credit for flit 977392
Requeued flit 977392
1
Received nack credit for flit 981591
Requeued flit 981591
3
Received nack credit for flit 981950
Requeued flit 981950
8
Received nack credit for flit 984609
Requeued flit 984609
5
Received nack credit for flit 985412
Requeued flit 985412
2
3
Received nack credit for flit 987673
Requeued flit 987673
Received nack credit for flit 987709
Requeued flit 987709
3
Received nack credit for flit 989980
Requeued flit 989980
1
1
Received nack credit for flit 990642
Requeued flit 990642
Received nack credit for flit 990676
Requeued flit 990676
1
Received nack credit for flit 992547
Requeued flit 992547
4
Received nack credit for flit 994034
Requeued flit 994034
1
Received nack credit for flit 997085
Requeued flit 997085
5
4
Received nack credit for flit 998293
Requeued flit 998293
Received nack credit for flit 998366
Requeued flit 998366
3
Received nack credit for flit 1000733
Requeued flit 1000733
5
Received nack credit for flit 1005749
Requeued flit 1005749
4
Received nack credit for flit 1008525
Requeued flit 1008525
2
Received nack credit for flit 1009230
Requeued flit 1009230
5
Received nack credit for flit 1012517
Requeued flit 1012517
1
Received nack credit for flit 1016552
Requeued flit 1016552
9
Received nack credit for flit 1016679
Requeued flit 1016679
10
Received nack credit for flit 1016872
Requeued flit 1016872
2
2
Received nack credit for flit 1019120
Requeued flit 1019120
Received nack credit for flit 1019167
Requeued flit 1019167
3
Received nack credit for flit 1021127
Requeued flit 1021127
1
Received nack credit for flit 1022497
Requeued flit 1022497
3
Received nack credit for flit 1023037
Requeued flit 1023037
5
Received nack credit for flit 1024240
Requeued flit 1024240
5
5
Received nack credit for flit 1024402
Requeued flit 1024402
Received nack credit for flit 1024381
Requeued flit 1024381
4
Received nack credit for flit 1025594
Requeued flit 1025594
1
Received nack credit for flit 1026240
Requeued flit 1026240
9
Received nack credit for flit 1028770
Requeued flit 1028770
4
6
Received nack credit for flit 1030296
Requeued flit 1030296
Received nack credit for flit 1030184
Requeued flit 1030184
3
Received nack credit for flit 1035245
Requeued flit 1035245
1
Received nack credit for flit 1036572
Requeued flit 1036572
4
Received nack credit for flit 1036881
Requeued flit 1036881
6
Received nack credit for flit 1038868
Requeued flit 1038868
5
Received nack credit for flit 1039492
Requeued flit 1039492
1
Received nack credit for flit 1044926
Requeued flit 1044926
1
Received nack credit for flit 1046975
Requeued flit 1046975
1
Received nack credit for flit 1047666
Requeued flit 1047666
1
Received nack credit for flit 1048065
Requeued flit 1048065
1
Received nack credit for flit 1049374
Requeued flit 1049374
1
Received nack credit for flit 1054142
Requeued flit 1054142
6
Received nack credit for flit 1056094
Requeued flit 1056094
6
Received nack credit for flit 1059608
Requeued flit 1059608
1
Received nack credit for flit 1060835
Requeued flit 1060835
3
Received nack credit for flit 1060920
Requeued flit 1060920
4
Received nack credit for flit 1062583
Requeued flit 1062583
4
Received nack credit for flit 1064590
Requeued flit 1064590
6
9
Received nack credit for flit 1065204
Requeued flit 1065204
Received nack credit for flit 1065081
Requeued flit 1065081
1
Received nack credit for flit 1065910
Requeued flit 1065910
5
Received nack credit for flit 1069313
Requeued flit 1069313
4
Received nack credit for flit 1075280
Requeued flit 1075280
1
Received nack credit for flit 1075953
Requeued flit 1075953
5
Received nack credit for flit 1079816
Requeued flit 1079816
5
Received nack credit for flit 1085046
Requeued flit 1085046
5
Received nack credit for flit 1085532
Requeued flit 1085532
1
Received nack credit for flit 1088669
Requeued flit 1088669
2
4
Received nack credit for flit 1089896
Requeued flit 1089896
Received nack credit for flit 1089844
Requeued flit 1089844
3
Received nack credit for flit 1092983
Requeued flit 1092983
2
Received nack credit for flit 1093259
Requeued flit 1093259
6
Received nack credit for flit 1098514
Requeued flit 1098514
2
Received nack credit for flit 1100268
Requeued flit 1100268
3
Received nack credit for flit 1103532
Requeued flit 1103532
3
Received nack credit for flit 1104147
Requeued flit 1104147
10
Received nack credit for flit 1105686
Requeued flit 1105686
1
Received nack credit for flit 1106775
Requeued flit 1106775
2
Received nack credit for flit 1107574
Requeued flit 1107574
4
Received nack credit for flit 1107964
Requeued flit 1107964
3
Received nack credit for flit 1113214
Requeued flit 1113214
9
Received nack credit for flit 1114446
Requeued flit 1114446
Class 0:
Packet latency average = 22.7984
	minimum = 5
	maximum = 65
Network latency average = 22.7984
	minimum = 5
	maximum = 65
Slowest packet = 864567
Flit latency average = 22.8022
	minimum = 5
	maximum = 65
Slowest flit = 864567
Fragmentation average = 0
	minimum = 0
	maximum = 0
Injected packet rate average = 0.349489
	minimum = 0.34135 (at node 30)
	maximum = 0.3562 (at node 0)
Accepted packet rate average = 0.349472
	minimum = 0.34015 (at node 6)
	maximum = 0.3617 (at node 15)
Injected flit rate average = 0.349489
	minimum = 0.34135 (at node 30)
	maximum = 0.3562 (at node 0)
Accepted flit rate average= 0.349472
	minimum = 0.34015 (at node 6)
	maximum = 0.3617 (at node 15)
Injected packet length average = 1
Accepted packet length average = 1
Total in-flight flits = 533 (533 measured)
latency change    = 0.00116279
throughput change = 1.34131e-05
7
Received nack credit for flit 1118750
Requeued flit 1118750
4
Received nack credit for flit 1119132
Requeued flit 1119132
1
Received nack credit for flit 1122027
Requeued flit 1122027
2
Received nack credit for flit 1123796
Requeued flit 1123796
11
Received nack credit for flit 1123253
Requeued flit 1123253
5
Received nack credit for flit 1124722
Requeued flit 1124722
1
Received nack credit for flit 1126962
Requeued flit 1126962
6
Received nack credit for flit 1127622
Requeued flit 1127622
1
Received nack credit for flit 1129642
Requeued flit 1129642
8
Received nack credit for flit 1130480
Requeued flit 1130480
4
Received nack credit for flit 1130852
Requeued flit 1130852
4
Received nack credit for flit 1132082
Requeued flit 1132082
1
Received nack credit for flit 1137063
Requeued flit 1137063
1
Received nack credit for flit 1140960
Requeued flit 1140960
1
5
Received nack credit for flit 1142599
Requeued flit 1142599
Received nack credit for flit 1142420
Requeued flit 1142420
1
Received nack credit for flit 1143010
Requeued flit 1143010
5
Received nack credit for flit 1142892
Requeued flit 1142892
3
Received nack credit for flit 1144228
Requeued flit 1144228
3
Received nack credit for flit 1146206
Requeued flit 1146206
6
Received nack credit for flit 1146748
Requeued flit 1146748
8
1
Received nack credit for flit 1148526
Requeued flit 1148526
Received nack credit for flit 1149219
Requeued flit 1149219
4
Received nack credit for flit 1151687
Requeued flit 1151687
10
Received nack credit for flit 1151609
Requeued flit 1151609
12
Received nack credit for flit 1154073
Requeued flit 1154073
1
Received nack credit for flit 1157358
Requeued flit 1157358
5
2
Received nack credit for flit 1157292
Requeued flit 1157292
Received nack credit for flit 1157591
Requeued flit 1157591
4
Received nack credit for flit 1158630
Requeued flit 1158630
2
Received nack credit for flit 1159530
Requeued flit 1159530
3
Received nack credit for flit 1160636
Requeued flit 1160636
1
3
Received nack credit for flit 1161306
Requeued flit 1161306
Received nack credit for flit 1161129
Requeued flit 1161129
10
Received nack credit for flit 1161215
Requeued flit 1161215
6
Received nack credit for flit 1162368
Requeued flit 1162368
1
Received nack credit for flit 1165382
Requeued flit 1165382
2
Received nack credit for flit 1166491
Requeued flit 1166491
1
Received nack credit for flit 1169125
Requeued flit 1169125
1
Received nack credit for flit 1169522
Requeued flit 1169522
2
Received nack credit for flit 1171693
Requeued flit 1171693
3
Received nack credit for flit 1172831
Requeued flit 1172831
3
Received nack credit for flit 1173848
Requeued flit 1173848
4
Received nack credit for flit 1176386
Requeued flit 1176386
4
Received nack credit for flit 1177786
Requeued flit 1177786
3
Received nack credit for flit 1181313
Requeued flit 1181313
2
Received nack credit for flit 1182501
Requeued flit 1182501
1
Received nack credit for flit 1185118
Requeued flit 1185118
1
Received nack credit for flit 1185617
Requeued flit 1185617
2
1
Received nack credit for flit 1187410
Requeued flit 1187410
Received nack credit for flit 1187346
Requeued flit 1187346
7
Received nack credit for flit 1187672
Requeued flit 1187672
2
Received nack credit for flit 1188312
Requeued flit 1188312
2
Received nack credit for flit 1190010
Requeued flit 1190010
1
Received nack credit for flit 1193447
Requeued flit 1193447
4
Received nack credit for flit 1194803
Requeued flit 1194803
1
Received nack credit for flit 1195265
Requeued flit 1195265
3
Received nack credit for flit 1195497
Requeued flit 1195497
2
Received nack credit for flit 1195871
Requeued flit 1195871
5
Received nack credit for flit 1198298
Requeued flit 1198298
1
Received nack credit for flit 1202120
Requeued flit 1202120
6
Received nack credit for flit 1203142
Requeued flit 1203142
1
4
Received nack credit for flit 1203851
Requeued flit 1203851
Received nack credit for flit 1203739
Requeued flit 1203739
8
Received nack credit for flit 1203973
Requeued flit 1203973
2
Received nack credit for flit 1206205
Requeued flit 1206205
7
Received nack credit for flit 1206658
Requeued flit 1206658
7
Received nack credit for flit 1207405
Requeued flit 1207405
2
Received nack credit for flit 1213006
Requeued flit 1213006
7
Received nack credit for flit 1212936
Requeued flit 1212936
2
Received nack credit for flit 1214673
Requeued flit 1214673
1
Received nack credit for flit 1220980
Requeued flit 1220980
3
Received nack credit for flit 1221865
Requeued flit 1221865
3
Received nack credit for flit 1226325
Requeued flit 1226325
8
3
Received nack credit for flit 1236411
Requeued flit 1236411
Received nack credit for flit 1236804
Requeued flit 1236804
2
Received nack credit for flit 1237162
Requeued flit 1237162
6
Received nack credit for flit 1238279
Requeued flit 1238279
10
Received nack credit for flit 1239193
Requeued flit 1239193
3
Received nack credit for flit 1240551
Requeued flit 1240551
1
Received nack credit for flit 1241695
Requeued flit 1241695
2
Received nack credit for flit 1242362
Requeued flit 1242362
2
Received nack credit for flit 1244630
Requeued flit 1244630
2
Received nack credit for flit 1245629
Requeued flit 1245629
4
7
Received nack credit for flit 1246012
Requeued flit 1246012
Received nack credit for flit 1245821
Requeued flit 1245821
1
3
Received nack credit for flit 1246644
Requeued flit 1246644
2
Received nack credit for flit 1246540
Requeued flit 1246540
Received nack credit for flit 1246734
Requeued flit 1246734
1
Received nack credit for flit 1249907
Requeued flit 1249907
3
Received nack credit for flit 1251978
Requeued flit 1251978
1
4
Received nack credit for flit 1252971
Requeued flit 1252971
Received nack credit for flit 1253183
Requeued flit 1253183
4
Received nack credit for flit 1254343
Requeued flit 1254343
4
Received nack credit for flit 1256837
Requeued flit 1256837
9
2
Received nack credit for flit 1259887
Requeued flit 1259887
Received nack credit for flit 1260310
Requeued flit 1260310
1
Received nack credit for flit 1270474
Requeued flit 1270474
4
Received nack credit for flit 1275073
Requeued flit 1275073
4
Received nack credit for flit 1278356
Requeued flit 1278356
4
Received nack credit for flit 1284797
Requeued flit 1284797
4
Received nack credit for flit 1287431
Requeued flit 1287431
1
Received nack credit for flit 1288624
Requeued flit 1288624
1
Received nack credit for flit 1289304
Requeued flit 1289304
5
Received nack credit for flit 1298361
Requeued flit 1298361
1
Received nack credit for flit 1300989
Requeued flit 1300989
1
Received nack credit for flit 1307020
Requeued flit 1307020
1
Received nack credit for flit 1309821
Requeued flit 1309821
8
Received nack credit for flit 1309595
Requeued flit 1309595
1
Received nack credit for flit 1312695
Requeued flit 1312695
2
Received nack credit for flit 1315330
Requeued flit 1315330
1
8
Received nack credit for flit 1317214
Requeued flit 1317214
Received nack credit for flit 1316779
Requeued flit 1316779
1
Received nack credit for flit 1317549
Requeued flit 1317549
1
Received nack credit for flit 1317883
Requeued flit 1317883
4
Received nack credit for flit 1321575
Requeued flit 1321575
9
Received nack credit for flit 1323022
Requeued flit 1323022
1
Received nack credit for flit 1326132
Requeued flit 1326132
5
Received nack credit for flit 1327846
Requeued flit 1327846
3
Received nack credit for flit 1330102
Requeued flit 1330102
6
Received nack credit for flit 1330361
Requeued flit 1330361
2
Received nack credit for flit 1331356
Requeued flit 1331356
3
Received nack credit for flit 1334525
Requeued flit 1334525
1
Received nack credit for flit 1336065
Requeued flit 1336065
3
Received nack credit for flit 1338596
Requeued flit 1338596
9
Received nack credit for flit 1341462
Requeued flit 1341462
Class 0:
Packet latency average = 22.8076
	minimum = 5
	maximum = 65
Network latency average = 22.8076
	minimum = 5
	maximum = 65
Slowest packet = 864567
Flit latency average = 22.8101
	minimum = 5
	maximum = 65
Slowest flit = 864567
Fragmentation average = 0
	minimum = 0
	maximum = 0
Injected packet rate average = 0.349737
	minimum = 0.341467 (at node 30)
	maximum = 0.356833 (at node 31)
Accepted packet rate average = 0.349741
	minimum = 0.341767 (at node 14)
	maximum = 0.357667 (at node 31)
Injected flit rate average = 0.349737
	minimum = 0.341467 (at node 30)
	maximum = 0.356833 (at node 31)
Accepted flit rate average= 0.349741
	minimum = 0.341767 (at node 14)
	maximum = 0.357667 (at node 31)
Injected packet length average = 1
Accepted packet length average = 1
Total in-flight flits = 504 (504 measured)
latency change    = 0.00040435
throughput change = 0.000768427
Draining all recorded packets ...
1
Draining remaining packets ...
Received nack credit for flit 1343982
Requeued flit 1343982
Time taken is 60092 cycles
====== Overall Traffic Statistics ======
====== Traffic class 0 ======
Packet latency average = 22.8101 (1 samples)
	minimum = 5 (1 samples)
	maximum = 65 (1 samples)
Network latency average = 22.8101 (1 samples)
	minimum = 5 (1 samples)
	maximum = 65 (1 samples)
Flit latency average = 22.813 (1 samples)
	minimum = 5 (1 samples)
	maximum = 65 (1 samples)
Fragmentation average = 0 (1 samples)
	minimum = 0 (1 samples)
	maximum = 0 (1 samples)
Injected packet rate average = 0.349737 (1 samples)
	minimum = 0.341467 (1 samples)
	maximum = 0.356833 (1 samples)
Accepted packet rate average = 0.349741 (1 samples)
	minimum = 0.341767 (1 samples)
	maximum = 0.357667 (1 samples)
Injected flit rate average = 0.349737 (1 samples)
	minimum = 0.341467 (1 samples)
	maximum = 0.356833 (1 samples)
Accepted flit rate average = 0.349741 (1 samples)
	minimum = 0.341767 (1 samples)
	maximum = 0.357667 (1 samples)
Injected packet size average = 1 (1 samples)
Accepted packet size average = 1 (1 samples)
Hops average = 6.2519 (1 samples)
Total run time 113.305
