BEGIN Configuration File: examples/ecc_mesh88_config_1_0.750_packet_4
// $Id$

// Copyright (c) 2007-2015, Trustees of The Leland Stanford Junior University
// All rights reserved.
//
// Redistribution and use in source and binary forms, with or without
// modification, are permitted provided that the following conditions are met:
//
// Redistributions of source code must retain the above copyright notice, this
// list of conditions and the following disclaimer.
// Redistributions in binary form must reproduce the above copyright notice,
// this list of conditions and the following disclaimer in the documentation
// and/or other materials provided with the distribution.
//
// THIS SOFTWARE IS PROVIDED BY THE COPYRIGHT HOLDERS AND CONTRIBUTORS "AS IS"
// AND ANY EXPRESS OR IMPLIED WARRANTIES, INCLUDING, BUT NOT LIMITED TO, THE
// IMPLIED WARRANTIES OF MERCHANTABILITY AND FITNESS FOR A PARTICULAR PURPOSE
// ARE DISCLAIMED. IN NO EVENT SHALL THE COPYRIGHT OWNER OR CONTRIBUTORS BE
// LIABLE FOR ANY DIRECT, INDIRECT, INCIDENTAL, SPECIAL, EXEMPLARY, OR
// CONSEQUENTIAL DAMAGES (INCLUDING, BUT NOT LIMITED TO, PROCUREMENT OF
// SUBSTITUTE GOODS OR SERVICES; LOSS OF USE, DATA, OR PROFITS; OR BUSINESS
// INTERRUPTION) HOWEVER CAUSED AND ON ANY THEORY OF LIABILITY, WHETHER IN
// CONTRACT, STRICT LIABILITY, OR TORT (INCLUDING NEGLIGENCE OR OTHERWISE)
// ARISING IN ANY WAY OUT OF THE USE OF THIS SOFTWARE, EVEN IF ADVISED OF THE
// POSSIBILITY OF SUCH DAMAGE.

// Dragonfly
//




vc_buf_size = 256;


wait_for_tail_credit = 0;

//
// Router architecture
//
vc_allocator = separable_input_first; 
sw_allocator = separable_input_first;
alloc_iters  = 1;

credit_delay   = 2;
routing_delay  = 0;
vc_alloc_delay = 1;
sw_alloc_delay = 1;
st_final_delay = 1;

input_speedup     = 1;
output_speedup    = 1;
internal_speedup  = 2.0;


warmup_periods = 3;
sim_count          = 1;

sample_period  = 10000;  


routing_function = dor;
num_vcs     = 2;

priority = none;
traffic       = uniform; 

injection_rate = 0.75;
packet_size = 1;
injection_rate_uses_flits = 1;

topology = mesh;

k  = 8;
n  = 2;

fer = 4;
ecc = link;

watch_out=-;
//watch_file = watch.txt;

ecc = packet;

stats_out = examples/ecc_mesh88_config_1_0.750_packet_4.m;

END Configuration File: examples/ecc_mesh88_config_1_0.750_packet_4
Additional hops: 9
Set signal latency stall time: 18
Reenqueueing errored packet 688 at time 78
Additional hops: 18
Set signal latency stall time: 18
Reenqueueing errored packet 910 at time 100
Additional hops: 24
Set signal latency stall time: 12
Reenqueueing errored packet 5338 at time 154
Additional hops: 33
Set signal latency stall time: 18
Reenqueueing errored packet 3869 at time 184
Additional hops: 38
Set signal latency stall time: 10
Reenqueueing errored packet 8445 at time 230
Additional hops: 46
Set signal latency stall time: 16
Reenqueueing errored packet 10779 at time 278
Additional hops: 54
Set signal latency stall time: 16
Reenqueueing errored packet 11752 at time 312
Additional hops: 57
Set signal latency stall time: 6
Reenqueueing errored packet 14049 at time 340
Additional hops: 66
Set signal latency stall time: 18
Additional hops: 72
Set signal latency stall time: 12
Reenqueueing errored packet 12415 at time 379
Reenqueueing errored packet 7665 at time 382
Additional hops: 77
Set signal latency stall time: 10
Reenqueueing errored packet 15180 at time 454
Additional hops: 83
Set signal latency stall time: 12
Reenqueueing errored packet 12464 at time 532
Additional hops: 87
Set signal latency stall time: 8
Reenqueueing errored packet 25211 at time 559
Additional hops: 97
Set signal latency stall time: 20
Reenqueueing errored packet 17557 at time 652
Additional hops: 102
Set signal latency stall time: 10
Additional hops: 107
Set signal latency stall time: 10
Reenqueueing errored packet 20052 at time 731
Reenqueueing errored packet 27784 at time 737
Additional hops: 112
Set signal latency stall time: 10
Reenqueueing errored packet 21785 at time 873
Additional hops: 120
Set signal latency stall time: 16
Additional hops: 124
Set signal latency stall time: 8
Reenqueueing errored packet 41438 at time 913
Reenqueueing errored packet 24564 at time 914
Additional hops: 133
Set signal latency stall time: 18
Reenqueueing errored packet 31823 at time 942
Additional hops: 137
Set signal latency stall time: 8
Reenqueueing errored packet 38315 at time 1028
Additional hops: 141
Set signal latency stall time: 8
Reenqueueing errored packet 48294 at time 1057
Additional hops: 149
Set signal latency stall time: 16
Reenqueueing errored packet 21875 at time 1090
Additional hops: 156
Set signal latency stall time: 14
Additional hops: 162
Set signal latency stall time: 12
Additional hops: 170
Set signal latency stall time: 16
Reenqueueing errored packet 39605 at time 1105
Reenqueueing errored packet 30761 at time 1109
Reenqueueing errored packet 33764 at time 1118
Additional hops: 178
Set signal latency stall time: 16
Reenqueueing errored packet 33430 at time 1159
Additional hops: 186
Set signal latency stall time: 16
Reenqueueing errored packet 32136 at time 1183
Additional hops: 196
Set signal latency stall time: 20
Additional hops: 202
Set signal latency stall time: 12
Reenqueueing errored packet 34116 at time 1287
Reenqueueing errored packet 48300 at time 1299
Additional hops: 208
Set signal latency stall time: 12
Additional hops: 217
Set signal latency stall time: 18
Additional hops: 225
Set signal latency stall time: 16
Reenqueueing errored packet 53412 at time 1353
Reenqueueing errored packet 31920 at time 1360
Reenqueueing errored packet 52968 at time 1363
Additional hops: 227
Set signal latency stall time: 4
Reenqueueing errored packet 57374 at time 1402
Additional hops: 233
Set signal latency stall time: 12
Reenqueueing errored packet 62140 at time 1506
Additional hops: 240
Set signal latency stall time: 14
Reenqueueing errored packet 46002 at time 1563
Additional hops: 246
Set signal latency stall time: 12
Reenqueueing errored packet 54884 at time 1599
Additional hops: 251
Set signal latency stall time: 10
Reenqueueing errored packet 73219 at time 1649
Additional hops: 255
Set signal latency stall time: 8
Reenqueueing errored packet 70071 at time 1756
Additional hops: 262
Set signal latency stall time: 14
Reenqueueing errored packet 46680 at time 1816
Additional hops: 268
Set signal latency stall time: 12
Reenqueueing errored packet 71165 at time 2025
Additional hops: 278
Set signal latency stall time: 20
Reenqueueing errored packet 49328 at time 2155
Additional hops: 285
Set signal latency stall time: 14
Additional hops: 294
Set signal latency stall time: 18
Reenqueueing errored packet 77471 at time 2228
Reenqueueing errored packet 64192 at time 2238
Additional hops: 297
Set signal latency stall time: 6
Reenqueueing errored packet 69041 at time 2251
Additional hops: 305
Set signal latency stall time: 16
Reenqueueing errored packet 88616 at time 2358
Additional hops: 310
Set signal latency stall time: 10
Reenqueueing errored packet 93229 at time 2399
Additional hops: 314
Set signal latency stall time: 8
Reenqueueing errored packet 106130 at time 2450
Additional hops: 321
Set signal latency stall time: 14
Reenqueueing errored packet 79244 at time 2505
Additional hops: 328
Set signal latency stall time: 14
Additional hops: 338
Set signal latency stall time: 20
Additional hops: 342
Set signal latency stall time: 8
Reenqueueing errored packet 80839 at time 2557
Additional hops: 347
Set signal latency stall time: 10
Reenqueueing errored packet 98951 at time 2564
Reenqueueing errored packet 74859 at time 2568
Reenqueueing errored packet 109771 at time 2569
Additional hops: 355
Set signal latency stall time: 16
Reenqueueing errored packet 72456 at time 2586
Additional hops: 361
Set signal latency stall time: 12
Reenqueueing errored packet 69789 at time 2632
Additional hops: 372
Set signal latency stall time: 22
Additional hops: 379
Set signal latency stall time: 14
Reenqueueing errored packet 54331 at time 2685
Reenqueueing errored packet 84127 at time 2695
Additional hops: 389
Set signal latency stall time: 20
Additional hops: 395
Set signal latency stall time: 12
Reenqueueing errored packet 73161 at time 2741
Reenqueueing errored packet 90686 at time 2742
Additional hops: 407
Set signal latency stall time: 24
Additional hops: 415
Set signal latency stall time: 16
Reenqueueing errored packet 75835 at time 2773
Reenqueueing errored packet 83145 at time 2779
Additional hops: 422
Set signal latency stall time: 14
Reenqueueing errored packet 113788 at time 2924
Additional hops: 428
Set signal latency stall time: 12
Reenqueueing errored packet 78849 at time 2984
Additional hops: 437
Set signal latency stall time: 18
Additional hops: 441
Set signal latency stall time: 8
Reenqueueing errored packet 145139 at time 3069
Reenqueueing errored packet 93736 at time 3077
Additional hops: 450
Set signal latency stall time: 18
Reenqueueing errored packet 83056 at time 3205
Additional hops: 455
Set signal latency stall time: 10
Reenqueueing errored packet 101336 at time 3252
Additional hops: 465
Set signal latency stall time: 20
Reenqueueing errored packet 92012 at time 3304
Additional hops: 471
Set signal latency stall time: 12
Reenqueueing errored packet 90656 at time 3419
Additional hops: 478
Set signal latency stall time: 14
Reenqueueing errored packet 120123 at time 3439
Additional hops: 486
Set signal latency stall time: 16
Additional hops: 493
Set signal latency stall time: 14
Reenqueueing errored packet 129408 at time 3470
Reenqueueing errored packet 140389 at time 3482
Additional hops: 500
Set signal latency stall time: 14
Reenqueueing errored packet 90247 at time 3532
Additional hops: 509
Set signal latency stall time: 18
Additional hops: 518
Set signal latency stall time: 18
Reenqueueing errored packet 133718 at time 3614
Reenqueueing errored packet 95330 at time 3630
Additional hops: 525
Set signal latency stall time: 14
Reenqueueing errored packet 113557 at time 3653
Additional hops: 536
Set signal latency stall time: 22
Reenqueueing errored packet 100147 at time 3723
Additional hops: 540
Set signal latency stall time: 8
Reenqueueing errored packet 171152 at time 3856
Additional hops: 552
Set signal latency stall time: 24
Reenqueueing errored packet 81351 at time 3902
Additional hops: 559
Set signal latency stall time: 14
Reenqueueing errored packet 107385 at time 4016
Additional hops: 568
Set signal latency stall time: 18
Additional hops: 571
Set signal latency stall time: 6
Reenqueueing errored packet 148204 at time 4056
Reenqueueing errored packet 134583 at time 4059
Additional hops: 579
Set signal latency stall time: 16
Additional hops: 585
Set signal latency stall time: 12
Reenqueueing errored packet 170639 at time 4081
Reenqueueing errored packet 99823 at time 4083
Additional hops: 596
Set signal latency stall time: 22
Reenqueueing errored packet 131322 at time 4110
Additional hops: 607
Set signal latency stall time: 22
Additional hops: 614
Set signal latency stall time: 14
Reenqueueing errored packet 110880 at time 4167
Additional hops: 624
Set signal latency stall time: 20
Reenqueueing errored packet 109494 at time 4188
Additional hops: 633
Set signal latency stall time: 18
Additional hops: 638
Set signal latency stall time: 10
Reenqueueing errored packet 137904 at time 4291
Reenqueueing errored packet 129427 at time 4297
Additional hops: 645
Set signal latency stall time: 14
Reenqueueing errored packet 173654 at time 4396
Additional hops: 650
Set signal latency stall time: 10
Additional hops: 662
Set signal latency stall time: 24
Reenqueueing errored packet 163695 at time 4451
Reenqueueing errored packet 149748 at time 4468
Additional hops: 670
Set signal latency stall time: 16
Reenqueueing errored packet 168647 at time 4541
Additional hops: 675
Set signal latency stall time: 10
Reenqueueing errored packet 145649 at time 4578
Additional hops: 679
Set signal latency stall time: 8
Reenqueueing errored packet 176727 at time 4663
Additional hops: 683
Set signal latency stall time: 8
Additional hops: 692
Set signal latency stall time: 18
Additional hops: 704
Set signal latency stall time: 24
Additional hops: 710
Set signal latency stall time: 12
Reenqueueing errored packet 140244 at time 4784
Reenqueueing errored packet 118516 at time 4789
Additional hops: 718
Set signal latency stall time: 16
Additional hops: 721
Set signal latency stall time: 6
Reenqueueing errored packet 177482 at time 4860
Reenqueueing errored packet 205159 at time 4866
Additional hops: 728
Set signal latency stall time: 14
Reenqueueing errored packet 206308 at time 4890
Additional hops: 741
Set signal latency stall time: 26
Additional hops: 748
Set signal latency stall time: 14
Additional hops: 753
Set signal latency stall time: 10
Reenqueueing errored packet 208314 at time 5133
Reenqueueing errored packet 140889 at time 5135
Additional hops: 761
Set signal latency stall time: 16
Reenqueueing errored packet 155664 at time 5182
Additional hops: 767
Set signal latency stall time: 12
Additional hops: 770
Set signal latency stall time: 6
Reenqueueing errored packet 175842 at time 5201
Additional hops: 779
Set signal latency stall time: 18
Reenqueueing errored packet 210597 at time 5204
Reenqueueing errored packet 187353 at time 5221
Additional hops: 783
Set signal latency stall time: 8
Reenqueueing errored packet 170179 at time 5273
Additional hops: 790
Set signal latency stall time: 14
Additional hops: 798
Set signal latency stall time: 16
Reenqueueing errored packet 154667 at time 5293
Reenqueueing errored packet 204400 at time 5307
Additional hops: 805
Set signal latency stall time: 14
Reenqueueing errored packet 217615 at time 5346
Additional hops: 813
Set signal latency stall time: 16
Reenqueueing errored packet 222676 at time 5465
Additional hops: 821
Set signal latency stall time: 16
Additional hops: 829
Set signal latency stall time: 16
Additional hops: 840
Set signal latency stall time: 22
Reenqueueing errored packet 140192 at time 5501
Additional hops: 845
Set signal latency stall time: 10
Reenqueueing errored packet 236563 at time 5554
Additional hops: 857
Set signal latency stall time: 24
Additional hops: 868
Set signal latency stall time: 22
Reenqueueing errored packet 133868 at time 5681
Additional hops: 869
Set signal latency stall time: 2
Reenqueueing errored packet 230414 at time 5728
Additional hops: 875
Set signal latency stall time: 12
Additional hops: 885
Set signal latency stall time: 20
Additional hops: 894
Set signal latency stall time: 18
Additional hops: 905
Set signal latency stall time: 22
Additional hops: 919
Set signal latency stall time: 28
Reenqueueing errored packet 209140 at time 5908
Additional hops: 931
Set signal latency stall time: 24
Reenqueueing errored packet 123323 at time 5936
Additional hops: 934
Set signal latency stall time: 6
Reenqueueing errored packet 256464 at time 5964
Additional hops: 945
Set signal latency stall time: 22
Reenqueueing errored packet 133730 at time 6089
Additional hops: 958
Set signal latency stall time: 26
Additional hops: 962
Set signal latency stall time: 8
Additional hops: 969
Set signal latency stall time: 14
Additional hops: 972
Set signal latency stall time: 6
Reenqueueing errored packet 254264 at time 6217
Additional hops: 985
Set signal latency stall time: 26
Reenqueueing errored packet 208068 at time 6223
Additional hops: 993
Set signal latency stall time: 16
Reenqueueing errored packet 205819 at time 6303
Additional hops: 996
Set signal latency stall time: 6
Reenqueueing errored packet 242482 at time 6371
Additional hops: 1002
Set signal latency stall time: 12
Additional hops: 1009
Set signal latency stall time: 14
Additional hops: 1019
Set signal latency stall time: 20
Reenqueueing errored packet 254296 at time 6433
Reenqueueing errored packet 141086 at time 6439
Additional hops: 1027
Set signal latency stall time: 16
Additional hops: 1035
Set signal latency stall time: 16
Additional hops: 1050
Set signal latency stall time: 30
Reenqueueing errored packet 146504 at time 6619
Additional hops: 1059
Set signal latency stall time: 18
Additional hops: 1067
Set signal latency stall time: 16
Reenqueueing errored packet 207628 at time 6659
Reenqueueing errored packet 245412 at time 6664
Additional hops: 1079
Set signal latency stall time: 24
Additional hops: 1090
Set signal latency stall time: 22
Additional hops: 1095
Set signal latency stall time: 10
Reenqueueing errored packet 241497 at time 6767
Additional hops: 1099
Set signal latency stall time: 8
Additional hops: 1105
Set signal latency stall time: 12
Additional hops: 1112
Set signal latency stall time: 14
Reenqueueing errored packet 249254 at time 6845
Reenqueueing errored packet 210963 at time 6848
Additional hops: 1120
Set signal latency stall time: 16
Reenqueueing errored packet 261482 at time 6873
Additional hops: 1125
Set signal latency stall time: 10
Reenqueueing errored packet 275854 at time 6991
Additional hops: 1130
Set signal latency stall time: 10
Reenqueueing errored packet 274508 at time 7006
Additional hops: 1138
Set signal latency stall time: 16
Additional hops: 1146
Set signal latency stall time: 16
Reenqueueing errored packet 270446 at time 7036
Reenqueueing errored packet 151802 at time 7044
Additional hops: 1155
Set signal latency stall time: 18
Additional hops: 1163
Set signal latency stall time: 16
Additional hops: 1170
Set signal latency stall time: 14
Reenqueueing errored packet 231173 at time 7073
Additional hops: 1173
Set signal latency stall time: 6
Reenqueueing errored packet 273429 at time 7089
Additional hops: 1181
Set signal latency stall time: 16
Additional hops: 1184
Set signal latency stall time: 6
Additional hops: 1196
Set signal latency stall time: 24
Reenqueueing errored packet 153546 at time 7154
Additional hops: 1204
Set signal latency stall time: 16
Reenqueueing errored packet 161786 at time 7302
Additional hops: 1211
Set signal latency stall time: 14
Reenqueueing errored packet 242962 at time 7339
Additional hops: 1222
Set signal latency stall time: 22
Additional hops: 1230
Set signal latency stall time: 16
Reenqueueing errored packet 286915 at time 7480
Additional hops: 1240
Set signal latency stall time: 20
Additional hops: 1250
Set signal latency stall time: 20
Additional hops: 1256
Set signal latency stall time: 12
Reenqueueing errored packet 305805 at time 7524
Reenqueueing errored packet 232620 at time 7531
Additional hops: 1268
Set signal latency stall time: 24
Additional hops: 1277
Set signal latency stall time: 18
Reenqueueing errored packet 231109 at time 7583
Reenqueueing errored packet 163949 at time 7590
Additional hops: 1280
Set signal latency stall time: 6
Reenqueueing errored packet 307738 at time 7605
Additional hops: 1284
Set signal latency stall time: 8
Additional hops: 1289
Set signal latency stall time: 10
Reenqueueing errored packet 306516 at time 7815
Additional hops: 1293
Set signal latency stall time: 8
Reenqueueing errored packet 315990 at time 7848
Additional hops: 1305
Set signal latency stall time: 24
Additional hops: 1318
Set signal latency stall time: 26
Additional hops: 1327
Set signal latency stall time: 18
Reenqueueing errored packet 285266 at time 7972
Additional hops: 1332
Set signal latency stall time: 10
Reenqueueing errored packet 302567 at time 7988
Additional hops: 1336
Set signal latency stall time: 8
Additional hops: 1338
Set signal latency stall time: 4
Reenqueueing errored packet 209477 at time 8129
Additional hops: 1343
Set signal latency stall time: 10
Reenqueueing errored packet 326618 at time 8197
Additional hops: 1348
Set signal latency stall time: 10
Reenqueueing errored packet 267441 at time 8260
Additional hops: 1357
Set signal latency stall time: 18
Reenqueueing errored packet 316860 at time 8287
Additional hops: 1364
Set signal latency stall time: 14
Reenqueueing errored packet 329442 at time 8311
Additional hops: 1373
Set signal latency stall time: 18
Additional hops: 1377
Set signal latency stall time: 8
Reenqueueing errored packet 311308 at time 8332
Additional hops: 1379
Set signal latency stall time: 4
Reenqueueing errored packet 330093 at time 8340
Additional hops: 1388
Set signal latency stall time: 18
Additional hops: 1390
Set signal latency stall time: 4
Reenqueueing errored packet 342287 at time 8414
Additional hops: 1401
Set signal latency stall time: 22
Additional hops: 1406
Set signal latency stall time: 10
Reenqueueing errored packet 339314 at time 8512
Additional hops: 1417
Set signal latency stall time: 22
Reenqueueing errored packet 187604 at time 8544
Additional hops: 1426
Set signal latency stall time: 18
Additional hops: 1435
Set signal latency stall time: 18
Reenqueueing errored packet 265896 at time 8786
Additional hops: 1445
Set signal latency stall time: 20
Additional hops: 1456
Set signal latency stall time: 22
Reenqueueing errored packet 298428 at time 8810
Additional hops: 1462
Set signal latency stall time: 12
Additional hops: 1471
Set signal latency stall time: 18
Reenqueueing errored packet 336750 at time 8909
Additional hops: 1476
Set signal latency stall time: 10
Additional hops: 1485
Set signal latency stall time: 18
Additional hops: 1492
Set signal latency stall time: 14
Reenqueueing errored packet 271763 at time 9011
Additional hops: 1501
Set signal latency stall time: 18
Additional hops: 1509
Set signal latency stall time: 16
Reenqueueing errored packet 227938 at time 9056
Additional hops: 1518
Set signal latency stall time: 18
Additional hops: 1522
Set signal latency stall time: 8
Reenqueueing errored packet 323812 at time 9100
Additional hops: 1532
Set signal latency stall time: 20
Additional hops: 1539
Set signal latency stall time: 14
Reenqueueing errored packet 186878 at time 9180
Additional hops: 1541
Set signal latency stall time: 4
Additional hops: 1552
Set signal latency stall time: 22
Reenqueueing errored packet 358813 at time 9200
Additional hops: 1560
Set signal latency stall time: 16
Additional hops: 1569
Set signal latency stall time: 18
Reenqueueing errored packet 345497 at time 9309
Additional hops: 1578
Set signal latency stall time: 18
Additional hops: 1587
Set signal latency stall time: 18
Reenqueueing errored packet 330236 at time 9335
Additional hops: 1597
Set signal latency stall time: 20
Reenqueueing errored packet 229500 at time 9371
Additional hops: 1605
Set signal latency stall time: 16
Additional hops: 1611
Set signal latency stall time: 12
Additional hops: 1619
Set signal latency stall time: 16
Reenqueueing errored packet 294103 at time 9482
Additional hops: 1626
Set signal latency stall time: 14
Additional hops: 1633
Set signal latency stall time: 14
Additional hops: 1639
Set signal latency stall time: 12
Additional hops: 1647
Set signal latency stall time: 16
Additional hops: 1651
Set signal latency stall time: 8
Reenqueueing errored packet 378089 at time 9817
Additional hops: 1658
Set signal latency stall time: 14
Additional hops: 1669
Set signal latency stall time: 22
Reenqueueing errored packet 347023 at time 9854
Additional hops: 1681
Set signal latency stall time: 24
Reenqueueing errored packet 348004 at time 9869
Additional hops: 1684
Set signal latency stall time: 6
Reenqueueing errored packet 364633 at time 9876
Reenqueueing errored packet 206944 at time 9893
Additional hops: 1690
Set signal latency stall time: 12
Additional hops: 1698
Set signal latency stall time: 16
Reenqueueing errored packet 302357 at time 9930
Additional hops: 1706
Set signal latency stall time: 16
Additional hops: 1714
Set signal latency stall time: 16
Additional hops: 1722
Set signal latency stall time: 16
Reenqueueing errored packet 367242 at time 9966
Reenqueueing errored packet 366650 at time 9981
Additional hops: 1727
Set signal latency stall time: 10
Additional hops: 1738
Set signal latency stall time: 22
Reenqueueing errored packet 384099 at time 9995
Class 0:
Packet latency average = 1258.63
	minimum = 5
	maximum = 7080
Network latency average = 1194.65
	minimum = 5
	maximum = 5796
Slowest packet = 67734
Flit latency average = 1194.65
	minimum = 5
	maximum = 5796
Slowest flit = 197687
Fragmentation average = 0
	minimum = 0
	maximum = 0
Injected packet rate average = 0.614631
	minimum = 0.4668 (at node 54)
	maximum = 0.7584 (at node 44)
Accepted packet rate average = 0.50795
	minimum = 0.4934 (at node 21)
	maximum = 0.5246 (at node 28)
Injected flit rate average = 0.614631
	minimum = 0.4668 (at node 54)
	maximum = 0.7584 (at node 44)
Accepted flit rate average= 0.50795
	minimum = 0.4934 (at node 21)
	maximum = 0.5246 (at node 28)
Injected packet length average = 1
Accepted packet length average = 1
Total in-flight flits = 68365 (0 measured)
latency change    = 1
throughput change = 1
Average latency for class 0 exceeded 500 cycles. Aborting simulation.
Too many sample periods needed to converge
Simulation unstable, ending ...
Total run time 60.4684
