BEGIN Configuration File: examples/ecc_mesh88_config_1_0.800_link_3
// $Id$

// Copyright (c) 2007-2015, Trustees of The Leland Stanford Junior University
// All rights reserved.
//
// Redistribution and use in source and binary forms, with or without
// modification, are permitted provided that the following conditions are met:
//
// Redistributions of source code must retain the above copyright notice, this
// list of conditions and the following disclaimer.
// Redistributions in binary form must reproduce the above copyright notice,
// this list of conditions and the following disclaimer in the documentation
// and/or other materials provided with the distribution.
//
// THIS SOFTWARE IS PROVIDED BY THE COPYRIGHT HOLDERS AND CONTRIBUTORS "AS IS"
// AND ANY EXPRESS OR IMPLIED WARRANTIES, INCLUDING, BUT NOT LIMITED TO, THE
// IMPLIED WARRANTIES OF MERCHANTABILITY AND FITNESS FOR A PARTICULAR PURPOSE
// ARE DISCLAIMED. IN NO EVENT SHALL THE COPYRIGHT OWNER OR CONTRIBUTORS BE
// LIABLE FOR ANY DIRECT, INDIRECT, INCIDENTAL, SPECIAL, EXEMPLARY, OR
// CONSEQUENTIAL DAMAGES (INCLUDING, BUT NOT LIMITED TO, PROCUREMENT OF
// SUBSTITUTE GOODS OR SERVICES; LOSS OF USE, DATA, OR PROFITS; OR BUSINESS
// INTERRUPTION) HOWEVER CAUSED AND ON ANY THEORY OF LIABILITY, WHETHER IN
// CONTRACT, STRICT LIABILITY, OR TORT (INCLUDING NEGLIGENCE OR OTHERWISE)
// ARISING IN ANY WAY OUT OF THE USE OF THIS SOFTWARE, EVEN IF ADVISED OF THE
// POSSIBILITY OF SUCH DAMAGE.

// Dragonfly
//




vc_buf_size = 256;


wait_for_tail_credit = 0;

//
// Router architecture
//
vc_allocator = separable_input_first; 
sw_allocator = separable_input_first;
alloc_iters  = 1;

credit_delay   = 2;
routing_delay  = 0;
vc_alloc_delay = 1;
sw_alloc_delay = 1;
st_final_delay = 1;

input_speedup     = 1;
output_speedup    = 1;
internal_speedup  = 2.0;


warmup_periods = 3;
sim_count          = 1;

sample_period  = 10000;  


routing_function = dor;
num_vcs     = 2;

priority = none;
traffic       = uniform; 

injection_rate = 0.8;
packet_size = 1;
injection_rate_uses_flits = 1;

topology = mesh;

k  = 8;
n  = 2;

fer = 3;
ecc = link;

watch_out=-;
//watch_file = watch.txt;

ecc = link;

stats_out = examples/ecc_mesh88_config_1_0.800_link_3.m;

END Configuration File: examples/ecc_mesh88_config_1_0.800_link_3
6
Received nack credit for flit 17
Requeued flit 17
3
3
Received nack credit for flit 785
Requeued flit 785
1
Received nack credit for flit 549
Requeued flit 549
Received nack credit for flit 1269
Requeued flit 1269
1
1
Received nack credit for flit 1672
Requeued flit 1672
Received nack credit for flit 1532
Requeued flit 1532
1
1
Received nack credit for flit 2250
Requeued flit 2250
Received nack credit for flit 2578
Requeued flit 2578
5
Received nack credit for flit 975
Requeued flit 975
6
1
Received nack credit for flit 1229
Requeued flit 1229
1
Received nack credit for flit 3419
Requeued flit 3419
Received nack credit for flit 3717
Requeued flit 3717
8
Received nack credit for flit 2152
Requeued flit 2152
1
Received nack credit for flit 5294
Requeued flit 5294
1
Received nack credit for flit 5022
Requeued flit 5022
5
5
Received nack credit for flit 3698
Requeued flit 3698
Received nack credit for flit 3248
Requeued flit 3248
1
5
Received nack credit for flit 5311
Requeued flit 5311
1
5
Received nack credit for flit 2369
Requeued flit 2369
Received nack credit for flit 5703
Requeued flit 5703
Received nack credit for flit 4093
Requeued flit 4093
2
Received nack credit for flit 7142
Requeued flit 7142
1
Received nack credit for flit 6243
Requeued flit 6243
6
1
Received nack credit for flit 3104
Requeued flit 3104
Received nack credit for flit 8391
Requeued flit 8391
1
Received nack credit for flit 8743
Requeued flit 8743
1
Received nack credit for flit 8418
Requeued flit 8418
1
Received nack credit for flit 8042
Requeued flit 8042
8
Received nack credit for flit 4472
Requeued flit 4472
1
Received nack credit for flit 9263
Requeued flit 9263
6
2
2
1
1
Received nack credit for flit 4897
Requeued flit 4897
Received nack credit for flit 9536
Requeued flit 9536
Received nack credit for flit 11119
Requeued flit 11119
Received nack credit for flit 10425
Requeued flit 10425
2
6
Received nack credit for flit 11878
Requeued flit 11878
7
1
Received nack credit for flit 11324
Requeued flit 11324
4
Received nack credit for flit 5854
Requeued flit 5854
Received nack credit for flit 5661
Requeued flit 5661
Received nack credit for flit 10248
Requeued flit 10248
Received nack credit for flit 11099
Requeued flit 11099
5
2
2
Received nack credit for flit 7997
Requeued flit 7997
Received nack credit for flit 10990
Requeued flit 10990
Received nack credit for flit 12072
Requeued flit 12072
6
Received nack credit for flit 7779
Requeued flit 7779
6
Received nack credit for flit 7094
Requeued flit 7094
1
3
4
4
Received nack credit for flit 14730
Requeued flit 14730
Received nack credit for flit 9330
Requeued flit 9330
Received nack credit for flit 8655
Requeued flit 8655
Received nack credit for flit 9974
Requeued flit 9974
2
5
Received nack credit for flit 12704
Requeued flit 12704
6
Received nack credit for flit 7461
Requeued flit 7461
Received nack credit for flit 6628
Requeued flit 6628
5
3
Received nack credit for flit 7607
Requeued flit 7607
Received nack credit for flit 15343
Requeued flit 15343
4
6
Received nack credit for flit 10869
Requeued flit 10869
Received nack credit for flit 12029
Requeued flit 12029
4
Received nack credit for flit 10290
Requeued flit 10290
1
2
1
Received nack credit for flit 15107
Requeued flit 15107
Received nack credit for flit 16085
Requeued flit 16085
Received nack credit for flit 17582
Requeued flit 17582
1
1
Received nack credit for flit 17915
Requeued flit 17915
Received nack credit for flit 14005
Requeued flit 14005
3
Received nack credit for flit 12998
Requeued flit 12998
5
Received nack credit for flit 11713
Requeued flit 11713
6
Received nack credit for flit 12653
Requeued flit 12653
4
1
Received nack credit for flit 12026
Requeued flit 12026
Received nack credit for flit 16727
Requeued flit 16727
4
Received nack credit for flit 10596
Requeued flit 10596
8
5
Received nack credit for flit 9467
Requeued flit 9467
Received nack credit for flit 10204
Requeued flit 10204
5
2
1
Received nack credit for flit 12748
Requeued flit 12748
Received nack credit for flit 13498
Requeued flit 13498
4
1
Received nack credit for flit 19967
Requeued flit 19967
3
Received nack credit for flit 10563
Requeued flit 10563
Received nack credit for flit 21775
Requeued flit 21775
Received nack credit for flit 19001
Requeued flit 19001
1
1
2
6
Received nack credit for flit 21329
Requeued flit 21329
Received nack credit for flit 22322
Requeued flit 22322
1
Received nack credit for flit 22255
Requeued flit 22255
Received nack credit for flit 16574
Requeued flit 16574
1
Received nack credit for flit 18612
Requeued flit 18612
4
Received nack credit for flit 22826
Requeued flit 22826
1
2
Received nack credit for flit 16415
Requeued flit 16415
6
1
1
1
Received nack credit for flit 18730
Requeued flit 18730
Received nack credit for flit 22770
Requeued flit 22770
Received nack credit for flit 17342
Requeued flit 17342
Received nack credit for flit 13473
Requeued flit 13473
Received nack credit for flit 22037
Requeued flit 22037
Received nack credit for flit 23447
Requeued flit 23447
4
3
Received nack credit for flit 14583
Requeued flit 14583
Received nack credit for flit 23567
Requeued flit 23567
1
10
3
Received nack credit for flit 24349
Requeued flit 24349
Received nack credit for flit 8255
Requeued flit 8255
Received nack credit for flit 17087
Requeued flit 17087
1
Received nack credit for flit 19878
Requeued flit 19878
4
5
3
1
Received nack credit for flit 21766
Requeued flit 21766
Received nack credit for flit 16500
Requeued flit 16500
10
Received nack credit for flit 24555
Requeued flit 24555
Received nack credit for flit 25738
Requeued flit 25738
4
5
Received nack credit for flit 9690
Requeued flit 9690
5
Received nack credit for flit 15784
Requeued flit 15784
Received nack credit for flit 16827
Requeued flit 16827
4
Received nack credit for flit 17706
Requeued flit 17706
Received nack credit for flit 13074
Requeued flit 13074
1
Received nack credit for flit 24017
Requeued flit 24017
5
3
Received nack credit for flit 14610
Requeued flit 14610
Received nack credit for flit 16291
Requeued flit 16291
2
1
3
Received nack credit for flit 27753
Requeued flit 27753
Received nack credit for flit 29859
Requeued flit 29859
Received nack credit for flit 17362
Requeued flit 17362
1
5
4
Received nack credit for flit 24371
Requeued flit 24371
Received nack credit for flit 22720
Requeued flit 22720
Received nack credit for flit 27084
Requeued flit 27084
3
Received nack credit for flit 18302
Requeued flit 18302
8
Received nack credit for flit 11931
Requeued flit 11931
1
4
Received nack credit for flit 29506
Requeued flit 29506
1
6
Received nack credit for flit 17767
Requeued flit 17767
Received nack credit for flit 30187
Requeued flit 30187
8
Received nack credit for flit 16878
Requeued flit 16878
Received nack credit for flit 17242
Requeued flit 17242
1
4
Received nack credit for flit 17044
Requeued flit 17044
Received nack credit for flit 32509
Requeued flit 32509
4
2
Received nack credit for flit 18339
Requeued flit 18339
2
Received nack credit for flit 21352
Requeued flit 21352
4
Received nack credit for flit 33357
Requeued flit 33357
Received nack credit for flit 15101
Requeued flit 15101
3
2
Received nack credit for flit 17916
Requeued flit 17916
Received nack credit for flit 22582
Requeued flit 22582
4
6
Received nack credit for flit 25286
Requeued flit 25286
Received nack credit for flit 14252
Requeued flit 14252
10
Received nack credit for flit 13497
Requeued flit 13497
5
1
Received nack credit for flit 18117
Requeued flit 18117
3
6
Received nack credit for flit 36480
Requeued flit 36480
7
Received nack credit for flit 29314
Requeued flit 29314
6
Received nack credit for flit 22972
Requeued flit 22972
2
Received nack credit for flit 18486
Requeued flit 18486
Received nack credit for flit 26488
Requeued flit 26488
4
2
Received nack credit for flit 36850
Requeued flit 36850
1
Received nack credit for flit 33770
Requeued flit 33770
1
Received nack credit for flit 30719
Requeued flit 30719
5
Received nack credit for flit 37452
Requeued flit 37452
Received nack credit for flit 37425
Requeued flit 37425
Received nack credit for flit 27687
Requeued flit 27687
6
6
Received nack credit for flit 21162
Requeued flit 21162
2
Received nack credit for flit 28482
Requeued flit 28482
Received nack credit for flit 30255
Requeued flit 30255
5
1
Received nack credit for flit 30493
Requeued flit 30493
Received nack credit for flit 31236
Requeued flit 31236
3
4
Received nack credit for flit 38751
Requeued flit 38751
3
Received nack credit for flit 24254
Requeued flit 24254
1
1
1
Received nack credit for flit 29742
Requeued flit 29742
Received nack credit for flit 33091
Requeued flit 33091
8
Received nack credit for flit 39599
Requeued flit 39599
Received nack credit for flit 39621
Requeued flit 39621
3
6
Received nack credit for flit 20294
Requeued flit 20294
Received nack credit for flit 28491
Requeued flit 28491
Received nack credit for flit 25229
Requeued flit 25229
6
2
1
Received nack credit for flit 25621
Requeued flit 25621
1
Received nack credit for flit 32806
Requeued flit 32806
2
2
Received nack credit for flit 40860
Requeued flit 40860
Received nack credit for flit 33532
Requeued flit 33532
Received nack credit for flit 40840
Requeued flit 40840
4
Received nack credit for flit 34051
Requeued flit 34051
4
Received nack credit for flit 24920
Requeued flit 24920
3
Received nack credit for flit 30286
Requeued flit 30286
Received nack credit for flit 33582
Requeued flit 33582
5
1
Received nack credit for flit 33722
Requeued flit 33722
Received nack credit for flit 41980
Requeued flit 41980
10
Received nack credit for flit 24054
Requeued flit 24054
3
8
Received nack credit for flit 27607
Requeued flit 27607
Received nack credit for flit 21371
Requeued flit 21371
4
6
3
Received nack credit for flit 37803
Requeued flit 37803
1
3
Received nack credit for flit 35057
Requeued flit 35057
1
Received nack credit for flit 23171
Requeued flit 23171
Received nack credit for flit 35939
Requeued flit 35939
5
Received nack credit for flit 44556
Requeued flit 44556
Received nack credit for flit 44742
Requeued flit 44742
4
Received nack credit for flit 23074
Requeued flit 23074
Received nack credit for flit 23170
Requeued flit 23170
1
3
Received nack credit for flit 38179
Requeued flit 38179
1
Received nack credit for flit 27018
Requeued flit 27018
Received nack credit for flit 38788
Requeued flit 38788
6
1
Received nack credit for flit 22903
Requeued flit 22903
Received nack credit for flit 36086
Requeued flit 36086
1
Received nack credit for flit 46468
Requeued flit 46468
2
Received nack credit for flit 31858
Requeued flit 31858
9
3
Received nack credit for flit 35471
Requeued flit 35471
Received nack credit for flit 48422
Requeued flit 48422
3
Received nack credit for flit 29168
Requeued flit 29168
1
1
Received nack credit for flit 37375
Requeued flit 37375
Received nack credit for flit 50756
Requeued flit 50756
5
Received nack credit for flit 35734
Requeued flit 35734
8
Received nack credit for flit 25278
Requeued flit 25278
4
3
Received nack credit for flit 30684
Requeued flit 30684
Received nack credit for flit 26682
Requeued flit 26682
1
4
1
Received nack credit for flit 50403
Requeued flit 50403
Received nack credit for flit 28860
Requeued flit 28860
Received nack credit for flit 52919
Requeued flit 52919
2
Received nack credit for flit 46213
Requeued flit 46213
1
Received nack credit for flit 54225
Requeued flit 54225
6
4
Received nack credit for flit 29360
Requeued flit 29360
1
5
2
Received nack credit for flit 28865
Requeued flit 28865
Received nack credit for flit 54891
Requeued flit 54891
1
Received nack credit for flit 27228
Requeued flit 27228
Received nack credit for flit 33192
Requeued flit 33192
Received nack credit for flit 55185
Requeued flit 55185
1
2
Received nack credit for flit 46750
Requeued flit 46750
6
Received nack credit for flit 34341
Requeued flit 34341
5
3
Received nack credit for flit 26123
Requeued flit 26123
Received nack credit for flit 28948
Requeued flit 28948
9
Received nack credit for flit 44571
Requeued flit 44571
1
1
Received nack credit for flit 33711
Requeued flit 33711
Received nack credit for flit 54362
Requeued flit 54362
6
Received nack credit for flit 56648
Requeued flit 56648
Received nack credit for flit 45695
Requeued flit 45695
6
1
Received nack credit for flit 39533
Requeued flit 39533
Received nack credit for flit 57503
Requeued flit 57503
2
2
6
Received nack credit for flit 36705
Requeued flit 36705
Received nack credit for flit 36676
Requeued flit 36676
Received nack credit for flit 37013
Requeued flit 37013
2
Received nack credit for flit 35906
Requeued flit 35906
5
1
4
2
6
2
Received nack credit for flit 30597
Requeued flit 30597
Received nack credit for flit 47069
Requeued flit 47069
Received nack credit for flit 59297
Requeued flit 59297
Received nack credit for flit 49010
Requeued flit 49010
Received nack credit for flit 30600
Requeued flit 30600
Received nack credit for flit 47805
Requeued flit 47805
3
Received nack credit for flit 47914
Requeued flit 47914
3
3
5
Received nack credit for flit 48678
Requeued flit 48678
Received nack credit for flit 35201
Requeued flit 35201
Received nack credit for flit 39794
Requeued flit 39794
1
1
Received nack credit for flit 60925
Requeued flit 60925
6
Received nack credit for flit 60898
Requeued flit 60898
2
Received nack credit for flit 35873
Requeued flit 35873
6
Received nack credit for flit 55443
Requeued flit 55443
Received nack credit for flit 42626
Requeued flit 42626
3
Received nack credit for flit 33073
Requeued flit 33073
4
2
Received nack credit for flit 33392
Requeued flit 33392
Received nack credit for flit 50158
Requeued flit 50158
3
1
8
4
Received nack credit for flit 63803
Requeued flit 63803
Received nack credit for flit 52991
Requeued flit 52991
Received nack credit for flit 26035
Requeued flit 26035
Received nack credit for flit 50689
Requeued flit 50689
3
Received nack credit for flit 40951
Requeued flit 40951
1
1
Received nack credit for flit 49553
Requeued flit 49553
1
4
2
Received nack credit for flit 56242
Requeued flit 56242
Received nack credit for flit 65859
Requeued flit 65859
6
Received nack credit for flit 54132
Requeued flit 54132
Received nack credit for flit 33511
Requeued flit 33511
4
3
3
Received nack credit for flit 28135
Requeued flit 28135
2
Received nack credit for flit 46238
Requeued flit 46238
Received nack credit for flit 34842
Requeued flit 34842
1
Received nack credit for flit 64017
Requeued flit 64017
Received nack credit for flit 54891
Requeued flit 54891
1
Received nack credit for flit 66587
Requeued flit 66587
Received nack credit for flit 56272
Requeued flit 56272
2
Received nack credit for flit 59455
Requeued flit 59455
1
1
Received nack credit for flit 56349
Requeued flit 56349
Received nack credit for flit 67594
Requeued flit 67594
2
2
1
Received nack credit for flit 55216
Requeued flit 55216
Received nack credit for flit 67985
Requeued flit 67985
6
2
Received nack credit for flit 39661
Requeued flit 39661
Received nack credit for flit 68187
Requeued flit 68187
Received nack credit for flit 55886
Requeued flit 55886
4
3
3
Received nack credit for flit 34792
Requeued flit 34792
Received nack credit for flit 54648
Requeued flit 54648
Received nack credit for flit 43283
Requeued flit 43283
1
6
Received nack credit for flit 69364
Requeued flit 69364
Received nack credit for flit 37064
Requeued flit 37064
5
2
3
3
Received nack credit for flit 58096
Requeued flit 58096
Received nack credit for flit 52420
Requeued flit 52420
5
Received nack credit for flit 58457
Requeued flit 58457
Received nack credit for flit 36627
Requeued flit 36627
4
Received nack credit for flit 35658
Requeued flit 35658
Received nack credit for flit 36861
Requeued flit 36861
6
Received nack credit for flit 35859
Requeued flit 35859
6
6
1
Received nack credit for flit 35541
Requeued flit 35541
Received nack credit for flit 48283
Requeued flit 48283
Received nack credit for flit 61289
Requeued flit 61289
5
1
Received nack credit for flit 50257
Requeued flit 50257
Received nack credit for flit 59462
Requeued flit 59462
2
5
8
Received nack credit for flit 50963
Requeued flit 50963
Received nack credit for flit 63820
Requeued flit 63820
6
1
Received nack credit for flit 49898
Requeued flit 49898
4
Received nack credit for flit 58450
Requeued flit 58450
Received nack credit for flit 62471
Requeued flit 62471
Received nack credit for flit 58420
Requeued flit 58420
7
Received nack credit for flit 34459
Requeued flit 34459
7
1
Received nack credit for flit 32811
Requeued flit 32811
1
1
1
Received nack credit for flit 73551
Requeued flit 73551
7
3
4
1
Received nack credit for flit 56101
Requeued flit 56101
Received nack credit for flit 61534
Requeued flit 61534
Received nack credit for flit 73881
Requeued flit 73881
Received nack credit for flit 36150
Requeued flit 36150
Received nack credit for flit 44835
Requeued flit 44835
Received nack credit for flit 43062
Requeued flit 43062
Received nack credit for flit 60803
Requeued flit 60803
7
4
1
1
7
Received nack credit for flit 35525
Requeued flit 35525
Received nack credit for flit 43625
Requeued flit 43625
Received nack credit for flit 56049
Requeued flit 56049
Received nack credit for flit 31114
Requeued flit 31114
Received nack credit for flit 63143
Requeued flit 63143
5
Received nack credit for flit 56930
Requeued flit 56930
1
3
1
Received nack credit for flit 75666
Requeued flit 75666
Received nack credit for flit 75886
Requeued flit 75886
Received nack credit for flit 73157
Requeued flit 73157
4
1
2
1
Received nack credit for flit 49248
Requeued flit 49248
Received nack credit for flit 62651
Requeued flit 62651
5
Received nack credit for flit 53938
Requeued flit 53938
Received nack credit for flit 76249
Requeued flit 76249
Received nack credit for flit 56466
Requeued flit 56466
1
2
5
Received nack credit for flit 58158
Requeued flit 58158
Received nack credit for flit 64591
Requeued flit 64591
Received nack credit for flit 38182
Requeued flit 38182
1
Received nack credit for flit 77328
Requeued flit 77328
2
3
3
Received nack credit for flit 48400
Requeued flit 48400
7
Received nack credit for flit 48306
Requeued flit 48306
Received nack credit for flit 40315
Requeued flit 40315
Received nack credit for flit 57014
Requeued flit 57014
4
1
Received nack credit for flit 47754
Requeued flit 47754
Received nack credit for flit 63072
Requeued flit 63072
6
7
Received nack credit for flit 56828
Requeued flit 56828
4
3
Received nack credit for flit 59340
Requeued flit 59340
1
Received nack credit for flit 47440
Requeued flit 47440
Received nack credit for flit 46032
Requeued flit 46032
Received nack credit for flit 79480
Requeued flit 79480
2
Received nack credit for flit 63887
Requeued flit 63887
2
1
Received nack credit for flit 67691
Requeued flit 67691
Received nack credit for flit 71369
Requeued flit 71369
3
1
1
Received nack credit for flit 80504
Requeued flit 80504
Received nack credit for flit 68389
Requeued flit 68389
Received nack credit for flit 81478
Requeued flit 81478
1
5
Received nack credit for flit 60621
Requeued flit 60621
2
Received nack credit for flit 71203
Requeued flit 71203
Received nack credit for flit 69473
Requeued flit 69473
5
Received nack credit for flit 41652
Requeued flit 41652
2
Received nack credit for flit 50343
Requeued flit 50343
2
1
1
Received nack credit for flit 74054
Requeued flit 74054
Received nack credit for flit 83093
Requeued flit 83093
1
Received nack credit for flit 71038
Requeued flit 71038
Received nack credit for flit 84002
Requeued flit 84002
4
Received nack credit for flit 69482
Requeued flit 69482
2
5
1
Received nack credit for flit 71360
Requeued flit 71360
8
Received nack credit for flit 49246
Requeued flit 49246
Received nack credit for flit 64673
Requeued flit 64673
Received nack credit for flit 52922
Requeued flit 52922
2
4
1
Received nack credit for flit 66388
Requeued flit 66388
3
Received nack credit for flit 53417
Requeued flit 53417
Received nack credit for flit 85408
Requeued flit 85408
2
Received nack credit for flit 63979
Requeued flit 63979
Received nack credit for flit 77494
Requeued flit 77494
2
Received nack credit for flit 54092
Requeued flit 54092
3
1
6
Received nack credit for flit 42697
Requeued flit 42697
Received nack credit for flit 82138
Requeued flit 82138
7
Received nack credit for flit 36737
Requeued flit 36737
Received nack credit for flit 74348
Requeued flit 74348
3
Received nack credit for flit 54859
Requeued flit 54859
1
Received nack credit for flit 66448
Requeued flit 66448
1
4
Received nack credit for flit 82209
Requeued flit 82209
3
1
1
Received nack credit for flit 71559
Requeued flit 71559
Received nack credit for flit 67229
Requeued flit 67229
Received nack credit for flit 88691
Requeued flit 88691
Received nack credit for flit 74859
Requeued flit 74859
1
Received nack credit for flit 67506
Requeued flit 67506
3
Received nack credit for flit 43905
Requeued flit 43905
4
Received nack credit for flit 74483
Requeued flit 74483
3
Received nack credit for flit 68307
Requeued flit 68307
7
Received nack credit for flit 65135
Requeued flit 65135
1
Received nack credit for flit 70118
Requeued flit 70118
4
3
2
Received nack credit for flit 58128
Requeued flit 58128
1
Received nack credit for flit 57320
Requeued flit 57320
Received nack credit for flit 83661
Requeued flit 83661
1
Received nack credit for flit 92455
Requeued flit 92455
3
2
1
Received nack credit for flit 70415
Requeued flit 70415
Received nack credit for flit 76191
Requeued flit 76191
Received nack credit for flit 91582
Requeued flit 91582
Received nack credit for flit 69678
Requeued flit 69678
1
1
7
Received nack credit for flit 69817
Requeued flit 69817
Received nack credit for flit 76487
Requeued flit 76487
2
Received nack credit for flit 43771
Requeued flit 43771
1
5
Received nack credit for flit 58078
Requeued flit 58078
1
Received nack credit for flit 70936
Requeued flit 70936
Received nack credit for flit 47743
Requeued flit 47743
Received nack credit for flit 77080
Requeued flit 77080
1
Received nack credit for flit 79575
Requeued flit 79575
2
4
1
Received nack credit for flit 62875
Requeued flit 62875
Received nack credit for flit 70689
Requeued flit 70689
5
Received nack credit for flit 78934
Requeued flit 78934
8
6
Received nack credit for flit 45168
Requeued flit 45168
11
5
4
Received nack credit for flit 49944
Requeued flit 49944
Received nack credit for flit 55312
Requeued flit 55312
Received nack credit for flit 48388
Requeued flit 48388
Received nack credit for flit 35741
Requeued flit 35741
Received nack credit for flit 62520
Requeued flit 62520
1
1
Received nack credit for flit 81332
Requeued flit 81332
Received nack credit for flit 96044
Requeued flit 96044
1
1
Received nack credit for flit 71154
Requeued flit 71154
2
2
Received nack credit for flit 72623
Requeued flit 72623
7
Received nack credit for flit 61056
Requeued flit 61056
Received nack credit for flit 81625
Requeued flit 81625
6
4
Received nack credit for flit 53798
Requeued flit 53798
Received nack credit for flit 69055
Requeued flit 69055
Received nack credit for flit 96005
Requeued flit 96005
1
1
4
Received nack credit for flit 74426
Requeued flit 74426
1
1
Received nack credit for flit 45658
Requeued flit 45658
Received nack credit for flit 79321
Requeued flit 79321
Received nack credit for flit 97681
Requeued flit 97681
Received nack credit for flit 97956
Requeued flit 97956
1
4
Received nack credit for flit 97952
Requeued flit 97952
Received nack credit for flit 45813
Requeued flit 45813
4
Received nack credit for flit 77551
Requeued flit 77551
1
Received nack credit for flit 74889
Requeued flit 74889
2
5
Received nack credit for flit 87389
Requeued flit 87389
3
Received nack credit for flit 50720
Requeued flit 50720
Received nack credit for flit 93576
Requeued flit 93576
11
1
6
Received nack credit for flit 38503
Requeued flit 38503
Received nack credit for flit 71131
Requeued flit 71131
Received nack credit for flit 101787
Requeued flit 101787
1
1
Received nack credit for flit 102162
Requeued flit 102162
1
Received nack credit for flit 96122
Requeued flit 96122
Received nack credit for flit 76471
Requeued flit 76471
1
Received nack credit for flit 78662
Requeued flit 78662
1
2
3
Received nack credit for flit 97774
Requeued flit 97774
Received nack credit for flit 101381
Requeued flit 101381
5
Received nack credit for flit 53069
Requeued flit 53069
1
2
Received nack credit for flit 49487
Requeued flit 49487
2
10
Received nack credit for flit 85600
Requeued flit 85600
Received nack credit for flit 85673
Requeued flit 85673
Received nack credit for flit 85100
Requeued flit 85100
1
Received nack credit for flit 38325
Requeued flit 38325
1
1
2
Received nack credit for flit 101526
Requeued flit 101526
5
1
Received nack credit for flit 86974
Requeued flit 86974
Received nack credit for flit 88074
Requeued flit 88074
Received nack credit for flit 99170
Requeued flit 99170
Received nack credit for flit 49188
Requeued flit 49188
2
1
1
4
Received nack credit for flit 104994
Requeued flit 104994
Received nack credit for flit 84510
Requeued flit 84510
Received nack credit for flit 80097
Requeued flit 80097
Received nack credit for flit 79091
Requeued flit 79091
Received nack credit for flit 63113
Requeued flit 63113
1
Received nack credit for flit 103833
Requeued flit 103833
5
6
Received nack credit for flit 50068
Requeued flit 50068
2
1
Received nack credit for flit 51118
Requeued flit 51118
Received nack credit for flit 79957
Requeued flit 79957
2
5
Received nack credit for flit 80941
Requeued flit 80941
Received nack credit for flit 48962
Requeued flit 48962
Received nack credit for flit 88964
Requeued flit 88964
4
7
Received nack credit for flit 54035
Requeued flit 54035
Received nack credit for flit 43020
Requeued flit 43020
1
1
Received nack credit for flit 81708
Requeued flit 81708
1
Received nack credit for flit 101916
Requeued flit 101916
Received nack credit for flit 89101
Requeued flit 89101
1
1
3
Received nack credit for flit 108371
Requeued flit 108371
Received nack credit for flit 82499
Requeued flit 82499
2
1
Received nack credit for flit 103877
Requeued flit 103877
Received nack credit for flit 82008
Requeued flit 82008
Received nack credit for flit 105182
Requeued flit 105182
1
1
1
2
1
Received nack credit for flit 83304
Requeued flit 83304
Received nack credit for flit 104768
Requeued flit 104768
Received nack credit for flit 90819
Requeued flit 90819
4
1
Received nack credit for flit 89910
Requeued flit 89910
1
Received nack credit for flit 109621
Requeued flit 109621
Received nack credit for flit 63491
Requeued flit 63491
Received nack credit for flit 83829
Requeued flit 83829
Received nack credit for flit 83638
Requeued flit 83638
4
1
Received nack credit for flit 56454
Requeued flit 56454
Received nack credit for flit 110278
Requeued flit 110278
2
3
1
Received nack credit for flit 93301
Requeued flit 93301
Received nack credit for flit 67557
Requeued flit 67557
4
5
Received nack credit for flit 84782
Requeued flit 84782
1
Received nack credit for flit 65710
Requeued flit 65710
Received nack credit for flit 53909
Requeued flit 53909
Received nack credit for flit 111140
Requeued flit 111140
4
1
Received nack credit for flit 58651
Requeued flit 58651
Received nack credit for flit 92479
Requeued flit 92479
3
2
Received nack credit for flit 66992
Requeued flit 66992
Received nack credit for flit 89181
Requeued flit 89181
5
2
1
Received nack credit for flit 84946
Requeued flit 84946
Received nack credit for flit 103186
Requeued flit 103186
6
Received nack credit for flit 92917
Requeued flit 92917
4
Received nack credit for flit 62776
Requeued flit 62776
Received nack credit for flit 65978
Requeued flit 65978
2
Received nack credit for flit 112960
Requeued flit 112960
1
1
1
Received nack credit for flit 94223
Requeued flit 94223
Received nack credit for flit 87443
Requeued flit 87443
2
3
Received nack credit for flit 87547
Requeued flit 87547
5
1
Received nack credit for flit 113678
Requeued flit 113678
Received nack credit for flit 106915
Requeued flit 106915
2
1
Received nack credit for flit 91367
Requeued flit 91367
Received nack credit for flit 88077
Requeued flit 88077
Received nack credit for flit 94654
Requeued flit 94654
7
1
Received nack credit for flit 113919
Requeued flit 113919
Received nack credit for flit 55541
Requeued flit 55541
Received nack credit for flit 88562
Requeued flit 88562
1
1
Received nack credit for flit 88446
Requeued flit 88446
Received nack credit for flit 115281
Requeued flit 115281
6
3
1
Received nack credit for flit 85364
Requeued flit 85364
Received nack credit for flit 115696
Requeued flit 115696
Received nack credit for flit 113912
Requeued flit 113912
8
Received nack credit for flit 50220
Requeued flit 50220
9
3
1
Received nack credit for flit 73302
Requeued flit 73302
Received nack credit for flit 91374
Requeued flit 91374
Received nack credit for flit 100034
Requeued flit 100034
1
1
Received nack credit for flit 116994
Requeued flit 116994
1
Received nack credit for flit 110379
Requeued flit 110379
1
Received nack credit for flit 111077
Requeued flit 111077
1
Received nack credit for flit 98274
Requeued flit 98274
1
Received nack credit for flit 89524
Requeued flit 89524
Received nack credit for flit 91735
Requeued flit 91735
6
1
2
Received nack credit for flit 49225
Requeued flit 49225
Received nack credit for flit 100286
Requeued flit 100286
Received nack credit for flit 118153
Requeued flit 118153
4
1
Received nack credit for flit 61673
Requeued flit 61673
7
10
Received nack credit for flit 119367
Requeued flit 119367
2
6
Received nack credit for flit 47852
Requeued flit 47852
1
Received nack credit for flit 90594
Requeued flit 90594
Received nack credit for flit 90654
Requeued flit 90654
Received nack credit for flit 64253
Requeued flit 64253
3
Received nack credit for flit 119948
Requeued flit 119948
1
1
6
5
Received nack credit for flit 73372
Requeued flit 73372
1
Received nack credit for flit 120205
Requeued flit 120205
Received nack credit for flit 91305
Requeued flit 91305
Received nack credit for flit 57749
Requeued flit 57749
Received nack credit for flit 62639
Requeued flit 62639
4
Received nack credit for flit 97514
Requeued flit 97514
5
4
Received nack credit for flit 59062
Requeued flit 59062
Received nack credit for flit 67064
Requeued flit 67064
Received nack credit for flit 61615
Requeued flit 61615
1
3
7
Received nack credit for flit 93724
Requeued flit 93724
Received nack credit for flit 97158
Requeued flit 97158
1
Received nack credit for flit 88227
Requeued flit 88227
2
Received nack credit for flit 121482
Requeued flit 121482
Received nack credit for flit 95033
Requeued flit 95033
8
Received nack credit for flit 64345
Requeued flit 64345
1
1
Received nack credit for flit 122326
Requeued flit 122326
8
11
Received nack credit for flit 105687
Requeued flit 105687
1
Received nack credit for flit 57632
Requeued flit 57632
Received nack credit for flit 70515
Requeued flit 70515
Received nack credit for flit 102257
Requeued flit 102257
1
Received nack credit for flit 123256
Requeued flit 123256
7
1
Received nack credit for flit 55141
Requeued flit 55141
Received nack credit for flit 96919
Requeued flit 96919
2
1
4
Received nack credit for flit 103329
Requeued flit 103329
Received nack credit for flit 104209
Requeued flit 104209
Received nack credit for flit 88476
Requeued flit 88476
1
Received nack credit for flit 111885
Requeued flit 111885
1
2
Received nack credit for flit 98738
Requeued flit 98738
2
Received nack credit for flit 102716
Requeued flit 102716
Received nack credit for flit 121975
Requeued flit 121975
3
Received nack credit for flit 75368
Requeued flit 75368
4
1
1
5
Received nack credit for flit 69243
Requeued flit 69243
Received nack credit for flit 105634
Requeued flit 105634
4
Received nack credit for flit 123818
Requeued flit 123818
Received nack credit for flit 61506
Requeued flit 61506
Received nack credit for flit 78392
Requeued flit 78392
3
4
Received nack credit for flit 77273
Requeued flit 77273
1
Received nack credit for flit 119793
Requeued flit 119793
8
1
7
Received nack credit for flit 127897
Requeued flit 127897
Received nack credit for flit 60678
Requeued flit 60678
1
Received nack credit for flit 124596
Requeued flit 124596
Received nack credit for flit 128221
Requeued flit 128221
Received nack credit for flit 98466
Requeued flit 98466
5
1
Received nack credit for flit 123480
Requeued flit 123480
Received nack credit for flit 94386
Requeued flit 94386
1
2
1
Received nack credit for flit 108298
Requeued flit 108298
Received nack credit for flit 81257
Requeued flit 81257
Received nack credit for flit 103587
Requeued flit 103587
5
1
3
1
Received nack credit for flit 105517
Requeued flit 105517
Received nack credit for flit 80466
Requeued flit 80466
Received nack credit for flit 130349
Requeued flit 130349
Received nack credit for flit 112589
Requeued flit 112589
1
1
Received nack credit for flit 102309
Requeued flit 102309
Received nack credit for flit 109301
Requeued flit 109301
1
Received nack credit for flit 80097
Requeued flit 80097
5
2
Received nack credit for flit 60880
Requeued flit 60880
5
1
4
Received nack credit for flit 104185
Requeued flit 104185
Received nack credit for flit 108386
Requeued flit 108386
1
Received nack credit for flit 67284
Requeued flit 67284
Received nack credit for flit 105135
Requeued flit 105135
Received nack credit for flit 107184
Requeued flit 107184
1
7
4
Received nack credit for flit 84284
Requeued flit 84284
Received nack credit for flit 128208
Requeued flit 128208
Received nack credit for flit 64196
Requeued flit 64196
1
1
2
Received nack credit for flit 133188
Requeued flit 133188
Received nack credit for flit 106706
Requeued flit 106706
Received nack credit for flit 126928
Requeued flit 126928
5
Received nack credit for flit 107616
Requeued flit 107616
1
2
Received nack credit for flit 121743
Requeued flit 121743
Received nack credit for flit 118999
Requeued flit 118999
2
Received nack credit for flit 132650
Requeued flit 132650
7
4
7
3
Received nack credit for flit 67730
Requeued flit 67730
1
Received nack credit for flit 100826
Requeued flit 100826
Received nack credit for flit 71482
Requeued flit 71482
4
Received nack credit for flit 109434
Requeued flit 109434
1
Received nack credit for flit 113161
Requeued flit 113161
Received nack credit for flit 80309
Requeued flit 80309
Received nack credit for flit 136630
Requeued flit 136630
1
1
Received nack credit for flit 132455
Requeued flit 132455
Received nack credit for flit 111133
Requeued flit 111133
1
7
5
Received nack credit for flit 111203
Requeued flit 111203
9
2
6
Received nack credit for flit 65833
Requeued flit 65833
Received nack credit for flit 65724
Requeued flit 65724
Received nack credit for flit 56064
Requeued flit 56064
Received nack credit for flit 134451
Requeued flit 134451
Received nack credit for flit 82171
Requeued flit 82171
1
1
Received nack credit for flit 112172
Requeued flit 112172
1
Received nack credit for flit 138465
Requeued flit 138465
8
Received nack credit for flit 111384
Requeued flit 111384
Received nack credit for flit 66998
Requeued flit 66998
6
Received nack credit for flit 69559
Requeued flit 69559
6
1
3
1
Received nack credit for flit 120695
Requeued flit 120695
Received nack credit for flit 115144
Requeued flit 115144
Received nack credit for flit 113325
Requeued flit 113325
5
Received nack credit for flit 90708
Requeued flit 90708
5
Received nack credit for flit 99926
Requeued flit 99926
6
2
Received nack credit for flit 84803
Requeued flit 84803
4
Received nack credit for flit 67397
Requeued flit 67397
Received nack credit for flit 88675
Requeued flit 88675
4
Received nack credit for flit 110711
Requeued flit 110711
Received nack credit for flit 90814
Requeued flit 90814
1
2
5
Received nack credit for flit 117075
Requeued flit 117075
Received nack credit for flit 137691
Requeued flit 137691
Received nack credit for flit 68038
Requeued flit 68038
5
1
1
Received nack credit for flit 98962
Requeued flit 98962
4
2
Received nack credit for flit 141702
Requeued flit 141702
Received nack credit for flit 138597
Requeued flit 138597
Received nack credit for flit 104977
Requeued flit 104977
Received nack credit for flit 92503
Requeued flit 92503
5
7
5
Received nack credit for flit 67530
Requeued flit 67530
5
Received nack credit for flit 103600
Requeued flit 103600
Received nack credit for flit 133926
Requeued flit 133926
3
3
Received nack credit for flit 69229
Requeued flit 69229
Received nack credit for flit 111341
Requeued flit 111341
1
Received nack credit for flit 134808
Requeued flit 134808
1
Received nack credit for flit 119348
Requeued flit 119348
Received nack credit for flit 143501
Requeued flit 143501
1
Received nack credit for flit 118903
Requeued flit 118903
1
5
Received nack credit for flit 65442
Requeued flit 65442
Received nack credit for flit 120894
Requeued flit 120894
1
Received nack credit for flit 145231
Requeued flit 145231
4
4
Received nack credit for flit 93741
Requeued flit 93741
Received nack credit for flit 90676
Requeued flit 90676
1
3
5
7
Received nack credit for flit 87103
Requeued flit 87103
3
Received nack credit for flit 101158
Requeued flit 101158
1
Received nack credit for flit 69637
Requeued flit 69637
Received nack credit for flit 146622
Requeued flit 146622
Received nack credit for flit 86678
Requeued flit 86678
1
Received nack credit for flit 141755
Requeued flit 141755
8
Received nack credit for flit 64394
Requeued flit 64394
Received nack credit for flit 147176
Requeued flit 147176
4
Received nack credit for flit 90065
Requeued flit 90065
8
7
2
Received nack credit for flit 60713
Requeued flit 60713
2
4
Received nack credit for flit 95160
Requeued flit 95160
Received nack credit for flit 74569
Requeued flit 74569
6
Received nack credit for flit 92697
Requeued flit 92697
Received nack credit for flit 111598
Requeued flit 111598
2
Received nack credit for flit 88295
Requeued flit 88295
2
3
Received nack credit for flit 140286
Requeued flit 140286
5
Received nack credit for flit 143072
Requeued flit 143072
Received nack credit for flit 77815
Requeued flit 77815
Received nack credit for flit 91772
Requeued flit 91772
4
Received nack credit for flit 119049
Requeued flit 119049
1
1
1
Received nack credit for flit 124887
Requeued flit 124887
Received nack credit for flit 150333
Requeued flit 150333
Received nack credit for flit 121834
Requeued flit 121834
6
Received nack credit for flit 68348
Requeued flit 68348
1
8
1
3
Received nack credit for flit 126646
Requeued flit 126646
Received nack credit for flit 72447
Requeued flit 72447
1
Received nack credit for flit 125347
Requeued flit 125347
Received nack credit for flit 98266
Requeued flit 98266
1
Received nack credit for flit 126299
Requeued flit 126299
2
Received nack credit for flit 122886
Requeued flit 122886
3
Received nack credit for flit 145327
Requeued flit 145327
Received nack credit for flit 119168
Requeued flit 119168
1
6
Received nack credit for flit 153612
Requeued flit 153612
1
Received nack credit for flit 71838
Requeued flit 71838
1
Received nack credit for flit 125307
Requeued flit 125307
Received nack credit for flit 127089
Requeued flit 127089
5
1
4
Received nack credit for flit 73643
Requeued flit 73643
Received nack credit for flit 149752
Requeued flit 149752
Received nack credit for flit 95014
Requeued flit 95014
4
5
2
1
Received nack credit for flit 98404
Requeued flit 98404
Received nack credit for flit 75775
Requeued flit 75775
Received nack credit for flit 127344
Requeued flit 127344
Received nack credit for flit 149134
Requeued flit 149134
5
4
1
Received nack credit for flit 77061
Requeued flit 77061
Received nack credit for flit 147336
Requeued flit 147336
3
Received nack credit for flit 147807
Requeued flit 147807
Received nack credit for flit 121646
Requeued flit 121646
2
Received nack credit for flit 125559
Requeued flit 125559
1
2
Received nack credit for flit 128089
Requeued flit 128089
1
Received nack credit for flit 102983
Requeued flit 102983
1
Received nack credit for flit 148777
Requeued flit 148777
3
Received nack credit for flit 129627
Requeued flit 129627
2
Received nack credit for flit 126433
Requeued flit 126433
Received nack credit for flit 126933
Requeued flit 126933
3
6
Received nack credit for flit 126042
Requeued flit 126042
5
Received nack credit for flit 129609
Requeued flit 129609
Received nack credit for flit 76644
Requeued flit 76644
1
5
4
1
Received nack credit for flit 158990
Requeued flit 158990
Received nack credit for flit 126845
Requeued flit 126845
Received nack credit for flit 76949
Requeued flit 76949
3
Received nack credit for flit 125488
Requeued flit 125488
6
Received nack credit for flit 100744
Requeued flit 100744
1
Received nack credit for flit 125745
Requeued flit 125745
6
Received nack credit for flit 160653
Requeued flit 160653
5
1
Received nack credit for flit 101988
Requeued flit 101988
6
Received nack credit for flit 85878
Requeued flit 85878
Received nack credit for flit 135874
Requeued flit 135874
6
Received nack credit for flit 125384
Requeued flit 125384
1
Received nack credit for flit 116000
Requeued flit 116000
1
1
3
1
3
Received nack credit for flit 151886
Requeued flit 151886
Received nack credit for flit 125282
Requeued flit 125282
4
Received nack credit for flit 93788
Requeued flit 93788
Received nack credit for flit 159118
Requeued flit 159118
Received nack credit for flit 154642
Requeued flit 154642
Received nack credit for flit 92214
Requeued flit 92214
4
6
5
Received nack credit for flit 96240
Requeued flit 96240
Received nack credit for flit 103277
Requeued flit 103277
Received nack credit for flit 77931
Requeued flit 77931
1
2
1
Received nack credit for flit 137689
Requeued flit 137689
Received nack credit for flit 146261
Requeued flit 146261
Received nack credit for flit 137967
Requeued flit 137967
2
Received nack credit for flit 123196
Requeued flit 123196
1
4
Received nack credit for flit 128423
Requeued flit 128423
2
7
Received nack credit for flit 81508
Requeued flit 81508
Received nack credit for flit 160083
Requeued flit 160083
6
3
Received nack credit for flit 130977
Requeued flit 130977
Received nack credit for flit 101558
Requeued flit 101558
Received nack credit for flit 83943
Requeued flit 83943
5
Received nack credit for flit 78815
Requeued flit 78815
1
2
Received nack credit for flit 152390
Requeued flit 152390
4
6
Received nack credit for flit 111088
Requeued flit 111088
Received nack credit for flit 101442
Requeued flit 101442
Received nack credit for flit 133818
Requeued flit 133818
6
8
Received nack credit for flit 137675
Requeued flit 137675
4
1
Received nack credit for flit 115909
Requeued flit 115909
Received nack credit for flit 109056
Requeued flit 109056
6
Received nack credit for flit 138552
Requeued flit 138552
2
Received nack credit for flit 167074
Requeued flit 167074
Received nack credit for flit 158563
Requeued flit 158563
1
6
1
1
Received nack credit for flit 167708
Requeued flit 167708
3
4
10
Received nack credit for flit 133144
Requeued flit 133144
Received nack credit for flit 138599
Requeued flit 138599
7
Received nack credit for flit 106121
Requeued flit 106121
Received nack credit for flit 165543
Requeued flit 165543
Received nack credit for flit 85105
Requeued flit 85105
2
Received nack credit for flit 82262
Requeued flit 82262
Received nack credit for flit 115749
Requeued flit 115749
Received nack credit for flit 149355
Requeued flit 149355
5
1
Received nack credit for flit 129737
Requeued flit 129737
5
Received nack credit for flit 140196
Requeued flit 140196
3
Received nack credit for flit 79356
Requeued flit 79356
1
Received nack credit for flit 135849
Requeued flit 135849
4
Received nack credit for flit 169084
Requeued flit 169084
Received nack credit for flit 101954
Requeued flit 101954
6
5
1
Received nack credit for flit 86316
Requeued flit 86316
Received nack credit for flit 165062
Requeued flit 165062
9
Received nack credit for flit 122197
Requeued flit 122197
2
3
4
Received nack credit for flit 75613
Requeued flit 75613
Received nack credit for flit 99476
Requeued flit 99476
Received nack credit for flit 90259
Requeued flit 90259
Received nack credit for flit 78948
Requeued flit 78948
1
Received nack credit for flit 147062
Requeued flit 147062
3
1
Received nack credit for flit 99737
Requeued flit 99737
1
Received nack credit for flit 145147
Requeued flit 145147
Received nack credit for flit 147783
Requeued flit 147783
8
3
5
Received nack credit for flit 100625
Requeued flit 100625
Received nack credit for flit 100824
Requeued flit 100824
Received nack credit for flit 119852
Requeued flit 119852
4
4
Received nack credit for flit 118318
Requeued flit 118318
1
Received nack credit for flit 138987
Requeued flit 138987
1
1
Received nack credit for flit 172087
Requeued flit 172087
Received nack credit for flit 149430
Requeued flit 149430
Received nack credit for flit 165163
Requeued flit 165163
2
1
1
Received nack credit for flit 103922
Requeued flit 103922
6
Received nack credit for flit 167015
Requeued flit 167015
Received nack credit for flit 148491
Requeued flit 148491
7
1
Received nack credit for flit 85383
Requeued flit 85383
2
Received nack credit for flit 129485
Requeued flit 129485
Received nack credit for flit 158825
Requeued flit 158825
3
Received nack credit for flit 118860
Requeued flit 118860
1
Received nack credit for flit 115301
Requeued flit 115301
Received nack credit for flit 149760
Requeued flit 149760
1
Received nack credit for flit 150382
Requeued flit 150382
2
2
Received nack credit for flit 135519
Requeued flit 135519
3
Received nack credit for flit 164465
Requeued flit 164465
3
Received nack credit for flit 105518
Requeued flit 105518
Received nack credit for flit 166965
Requeued flit 166965
6
3
5
Received nack credit for flit 84177
Requeued flit 84177
Received nack credit for flit 83512
Requeued flit 83512
Received nack credit for flit 160066
Requeued flit 160066
3
1
Received nack credit for flit 151486
Requeued flit 151486
5
Received nack credit for flit 169286
Requeued flit 169286
Received nack credit for flit 137898
Requeued flit 137898
2
Received nack credit for flit 169471
Requeued flit 169471
2
2
Received nack credit for flit 174806
Requeued flit 174806
Received nack credit for flit 143719
Requeued flit 143719
7
Received nack credit for flit 93979
Requeued flit 93979
1
1
Received nack credit for flit 170146
Requeued flit 170146
Received nack credit for flit 150158
Requeued flit 150158
1
Received nack credit for flit 170852
Requeued flit 170852
5
Received nack credit for flit 87124
Requeued flit 87124
2
1
9
Received nack credit for flit 105968
Requeued flit 105968
5
Received nack credit for flit 156281
Requeued flit 156281
1
Received nack credit for flit 73222
Requeued flit 73222
6
Received nack credit for flit 83153
Requeued flit 83153
Received nack credit for flit 157105
Requeued flit 157105
1
Received nack credit for flit 89897
Requeued flit 89897
1
Received nack credit for flit 131681
Requeued flit 131681
Received nack credit for flit 156392
Requeued flit 156392
1
6
Received nack credit for flit 159280
Requeued flit 159280
Received nack credit for flit 119502
Requeued flit 119502
4
3
1
Received nack credit for flit 144945
Requeued flit 144945
Received nack credit for flit 119605
Requeued flit 119605
1
6
Received nack credit for flit 167184
Requeued flit 167184
Received nack credit for flit 156878
Requeued flit 156878
Received nack credit for flit 86071
Requeued flit 86071
1
1
Received nack credit for flit 166636
Requeued flit 166636
Received nack credit for flit 157160
Requeued flit 157160
1
Received nack credit for flit 174692
Requeued flit 174692
1
Received nack credit for flit 139552
Requeued flit 139552
4
4
1
Received nack credit for flit 177480
Requeued flit 177480
Received nack credit for flit 150143
Requeued flit 150143
Received nack credit for flit 162570
Requeued flit 162570
5
Received nack credit for flit 144246
Requeued flit 144246
1
6
Received nack credit for flit 159941
Requeued flit 159941
Received nack credit for flit 171126
Requeued flit 171126
1
Received nack credit for flit 175986
Requeued flit 175986
2
1
6
Received nack credit for flit 176510
Requeued flit 176510
Received nack credit for flit 87371
Requeued flit 87371
Received nack credit for flit 170850
Requeued flit 170850
6
5
Received nack credit for flit 110415
Requeued flit 110415
4
2
Received nack credit for flit 146894
Requeued flit 146894
6
Received nack credit for flit 115417
Requeued flit 115417
1
Received nack credit for flit 109133
Requeued flit 109133
Received nack credit for flit 136310
Requeued flit 136310
Received nack credit for flit 164462
Requeued flit 164462
4
Received nack credit for flit 127538
Requeued flit 127538
1
6
6
Received nack credit for flit 178297
Requeued flit 178297
Received nack credit for flit 145216
Requeued flit 145216
Received nack credit for flit 120718
Requeued flit 120718
1
3
8
1
Received nack credit for flit 177673
Requeued flit 177673
Received nack credit for flit 156316
Requeued flit 156316
Received nack credit for flit 86596
Requeued flit 86596
Received nack credit for flit 138118
Requeued flit 138118
7
2
5
Received nack credit for flit 86692
Requeued flit 86692
Received nack credit for flit 110671
Requeued flit 110671
Received nack credit for flit 149970
Requeued flit 149970
1
Received nack credit for flit 166841
Requeued flit 166841
3
3
5
Received nack credit for flit 111222
Requeued flit 111222
1
Received nack credit for flit 181080
Requeued flit 181080
Received nack credit for flit 158993
Requeued flit 158993
7
Received nack credit for flit 161518
Requeued flit 161518
8
Received nack credit for flit 82167
Requeued flit 82167
1
3
Received nack credit for flit 119287
Requeued flit 119287
Received nack credit for flit 168136
Requeued flit 168136
3
Received nack credit for flit 137775
Requeued flit 137775
6
5
Received nack credit for flit 160930
Requeued flit 160930
Received nack credit for flit 158458
Requeued flit 158458
Received nack credit for flit 130752
Requeued flit 130752
5
7
7
2
Received nack credit for flit 98524
Requeued flit 98524
Received nack credit for flit 98227
Requeued flit 98227
Received nack credit for flit 155921
Requeued flit 155921
Received nack credit for flit 93805
Requeued flit 93805
3
6
4
Received nack credit for flit 120624
Requeued flit 120624
Received nack credit for flit 177756
Requeued flit 177756
5
Received nack credit for flit 158866
Requeued flit 158866
6
3
Received nack credit for flit 154680
Requeued flit 154680
Received nack credit for flit 151528
Requeued flit 151528
4
Received nack credit for flit 161482
Requeued flit 161482
2
4
Received nack credit for flit 182212
Requeued flit 182212
Received nack credit for flit 191926
Requeued flit 191926
Received nack credit for flit 150877
Requeued flit 150877
1
Received nack credit for flit 170353
Requeued flit 170353
8
11
Received nack credit for flit 153667
Requeued flit 153667
2
Received nack credit for flit 87894
Requeued flit 87894
2
Received nack credit for flit 171107
Requeued flit 171107
Received nack credit for flit 148137
Requeued flit 148137
4
Received nack credit for flit 132686
Requeued flit 132686
1
4
Received nack credit for flit 165577
Requeued flit 165577
1
Received nack credit for flit 150004
Requeued flit 150004
Received nack credit for flit 173608
Requeued flit 173608
5
4
Received nack credit for flit 131256
Requeued flit 131256
1
Received nack credit for flit 124531
Requeued flit 124531
2
Received nack credit for flit 141950
Requeued flit 141950
3
6
8
Received nack credit for flit 143733
Requeued flit 143733
Received nack credit for flit 88815
Requeued flit 88815
Received nack credit for flit 94170
Requeued flit 94170
Received nack credit for flit 166193
Requeued flit 166193
1
7
5
Received nack credit for flit 180202
Requeued flit 180202
Received nack credit for flit 126092
Requeued flit 126092
Received nack credit for flit 154194
Requeued flit 154194
5
6
Received nack credit for flit 98053
Requeued flit 98053
Received nack credit for flit 94217
Requeued flit 94217
4
Received nack credit for flit 95416
Requeued flit 95416
2
Received nack credit for flit 188186
Requeued flit 188186
1
Received nack credit for flit 176104
Requeued flit 176104
8
5
9
1
Received nack credit for flit 118590
Requeued flit 118590
Received nack credit for flit 94701
Requeued flit 94701
Received nack credit for flit 93040
Requeued flit 93040
Received nack credit for flit 178804
Requeued flit 178804
6
Received nack credit for flit 153910
Requeued flit 153910
9
1
Received nack credit for flit 128899
Requeued flit 128899
Received nack credit for flit 177935
Requeued flit 177935
2
4
Received nack credit for flit 139384
Requeued flit 139384
Received nack credit for flit 150474
Requeued flit 150474
4
Received nack credit for flit 139784
Requeued flit 139784
6
4
1
2
Received nack credit for flit 95095
Requeued flit 95095
Received nack credit for flit 120808
Requeued flit 120808
Received nack credit for flit 180849
Requeued flit 180849
Received nack credit for flit 194096
Requeued flit 194096
5
4
Received nack credit for flit 125136
Requeued flit 125136
1
Received nack credit for flit 161844
Requeued flit 161844
2
Received nack credit for flit 178148
Requeued flit 178148
2
Received nack credit for flit 174043
Requeued flit 174043
Received nack credit for flit 118848
Requeued flit 118848
9
1
Received nack credit for flit 112447
Requeued flit 112447
4
Received nack credit for flit 193513
Requeued flit 193513
3
2
Received nack credit for flit 131079
Requeued flit 131079
1
Received nack credit for flit 175944
Requeued flit 175944
Received nack credit for flit 197833
Requeued flit 197833
Received nack credit for flit 176867
Requeued flit 176867
1
4
5
1
2
Received nack credit for flit 147629
Requeued flit 147629
Received nack credit for flit 113299
Requeued flit 113299
Received nack credit for flit 145871
Requeued flit 145871
Received nack credit for flit 136209
Requeued flit 136209
Received nack credit for flit 153315
Requeued flit 153315
1
1
5
Received nack credit for flit 146546
Requeued flit 146546
Received nack credit for flit 176208
Requeued flit 176208
Received nack credit for flit 146462
Requeued flit 146462
6
1
Received nack credit for flit 136254
Requeued flit 136254
Received nack credit for flit 144855
Requeued flit 144855
1
3
Received nack credit for flit 180862
Requeued flit 180862
8
Received nack credit for flit 193245
Requeued flit 193245
Received nack credit for flit 93535
Requeued flit 93535
1
2
1
Received nack credit for flit 185050
Requeued flit 185050
Received nack credit for flit 124152
Requeued flit 124152
Received nack credit for flit 174580
Requeued flit 174580
2
Received nack credit for flit 199613
Requeued flit 199613
2
Received nack credit for flit 174839
Requeued flit 174839
3
4
Received nack credit for flit 137593
Requeued flit 137593
5
Received nack credit for flit 178569
Requeued flit 178569
Received nack credit for flit 141535
Requeued flit 141535
1
Received nack credit for flit 202887
Requeued flit 202887
2
Received nack credit for flit 145331
Requeued flit 145331
6
Received nack credit for flit 166977
Requeued flit 166977
1
Received nack credit for flit 188765
Requeued flit 188765
1
1
Received nack credit for flit 200469
Requeued flit 200469
1
Received nack credit for flit 146159
Requeued flit 146159
Received nack credit for flit 205545
Requeued flit 205545
2
2
Received nack credit for flit 185145
Requeued flit 185145
1
Received nack credit for flit 125497
Requeued flit 125497
2
1
Received nack credit for flit 201390
Requeued flit 201390
Received nack credit for flit 177879
Requeued flit 177879
Received nack credit for flit 186079
Requeued flit 186079
6
Received nack credit for flit 135189
Requeued flit 135189
1
5
4
Received nack credit for flit 189380
Requeued flit 189380
Received nack credit for flit 203338
Requeued flit 203338
7
Received nack credit for flit 146735
Requeued flit 146735
Received nack credit for flit 98790
Requeued flit 98790
1
1
Received nack credit for flit 206467
Requeued flit 206467
2
Received nack credit for flit 179673
Requeued flit 179673
5
Received nack credit for flit 198189
Requeued flit 198189
1
1
Received nack credit for flit 166288
Requeued flit 166288
Received nack credit for flit 212425
Requeued flit 212425
Received nack credit for flit 188309
Requeued flit 188309
2
1
Received nack credit for flit 192232
Requeued flit 192232
1
Received nack credit for flit 177135
Requeued flit 177135
2
3
1
Received nack credit for flit 154820
Requeued flit 154820
Received nack credit for flit 187052
Requeued flit 187052
Received nack credit for flit 196008
Requeued flit 196008
3
Received nack credit for flit 177135
Requeued flit 177135
Received nack credit for flit 130312
Requeued flit 130312
5
1
Received nack credit for flit 146777
Requeued flit 146777
Received nack credit for flit 150031
Requeued flit 150031
1
4
Received nack credit for flit 208647
Requeued flit 208647
1
3
Received nack credit for flit 151044
Requeued flit 151044
Received nack credit for flit 205782
Requeued flit 205782
Received nack credit for flit 185806
Requeued flit 185806
1
7
1
Received nack credit for flit 155108
Requeued flit 155108
Received nack credit for flit 170239
Requeued flit 170239
Received nack credit for flit 190012
Requeued flit 190012
1
5
Received nack credit for flit 180146
Requeued flit 180146
Received nack credit for flit 183333
Requeued flit 183333
1
6
Received nack credit for flit 146904
Requeued flit 146904
1
Received nack credit for flit 145023
Requeued flit 145023
Received nack credit for flit 207315
Requeued flit 207315
1
3
Received nack credit for flit 150667
Requeued flit 150667
Received nack credit for flit 154817
Requeued flit 154817
2
Received nack credit for flit 159245
Requeued flit 159245
2
3
4
Received nack credit for flit 130714
Requeued flit 130714
Received nack credit for flit 150886
Requeued flit 150886
6
Received nack credit for flit 106455
Requeued flit 106455
Received nack credit for flit 177547
Requeued flit 177547
2
Received nack credit for flit 161789
Requeued flit 161789
4
1
5
Received nack credit for flit 152207
Requeued flit 152207
Received nack credit for flit 148375
Requeued flit 148375
Received nack credit for flit 153715
Requeued flit 153715
1
9
Received nack credit for flit 190494
Requeued flit 190494
Received nack credit for flit 191396
Requeued flit 191396
6
2
Received nack credit for flit 147124
Requeued flit 147124
Received nack credit for flit 163502
Requeued flit 163502
2
6
7
Received nack credit for flit 160167
Requeued flit 160167
Received nack credit for flit 97838
Requeued flit 97838
Received nack credit for flit 140364
Requeued flit 140364
1
7
Received nack credit for flit 156607
Requeued flit 156607
Received nack credit for flit 102844
Requeued flit 102844
1
Received nack credit for flit 204400
Requeued flit 204400
3
Received nack credit for flit 191605
Requeued flit 191605
4
2
4
Received nack credit for flit 109704
Requeued flit 109704
Received nack credit for flit 106871
Requeued flit 106871
Received nack credit for flit 175926
Requeued flit 175926
3
3
Received nack credit for flit 158473
Requeued flit 158473
Received nack credit for flit 212611
Requeued flit 212611
1
Received nack credit for flit 182600
Requeued flit 182600
1
Received nack credit for flit 184178
Requeued flit 184178
1
1
1
Received nack credit for flit 202821
Requeued flit 202821
Received nack credit for flit 198035
Requeued flit 198035
1
Received nack credit for flit 162642
Requeued flit 162642
4
Received nack credit for flit 216180
Requeued flit 216180
7
9
Received nack credit for flit 206728
Requeued flit 206728
1
1
Received nack credit for flit 154396
Requeued flit 154396
Received nack credit for flit 136605
Requeued flit 136605
5
Received nack credit for flit 207283
Requeued flit 207283
Received nack credit for flit 156465
Requeued flit 156465
4
Received nack credit for flit 135187
Requeued flit 135187
1
Received nack credit for flit 161694
Requeued flit 161694
Received nack credit for flit 207993
Requeued flit 207993
3
3
1
4
1
Received nack credit for flit 114291
Requeued flit 114291
Received nack credit for flit 218704
Requeued flit 218704
1
Received nack credit for flit 217752
Requeued flit 217752
2
Received nack credit for flit 186881
Requeued flit 186881
3
Received nack credit for flit 208334
Requeued flit 208334
Received nack credit for flit 200990
Requeued flit 200990
Received nack credit for flit 195679
Requeued flit 195679
5
Received nack credit for flit 115957
Requeued flit 115957
1
1
Received nack credit for flit 192234
Requeued flit 192234
Received nack credit for flit 202394
Requeued flit 202394
1
2
2
2
5
Received nack credit for flit 209708
Requeued flit 209708
1
Received nack credit for flit 200875
Requeued flit 200875
Received nack credit for flit 130842
Requeued flit 130842
Received nack credit for flit 197120
Requeued flit 197120
3
Received nack credit for flit 205930
Requeued flit 205930
5
2
12
Received nack credit for flit 109877
Requeued flit 109877
Received nack credit for flit 217260
Requeued flit 217260
1
Received nack credit for flit 155435
Requeued flit 155435
2
4
Received nack credit for flit 210363
Requeued flit 210363
Received nack credit for flit 206904
Requeued flit 206904
Received nack credit for flit 155726
Requeued flit 155726
Received nack credit for flit 93416
Requeued flit 93416
12
3
Received nack credit for flit 93416
Requeued flit 93416
Received nack credit for flit 198963
Requeued flit 198963
3
3
Received nack credit for flit 228233
Requeued flit 228233
Received nack credit for flit 113155
Requeued flit 113155
1
8
Received nack credit for flit 222078
Requeued flit 222078
1
Received nack credit for flit 190483
Requeued flit 190483
Received nack credit for flit 221217
Requeued flit 221217
1
Received nack credit for flit 212686
Requeued flit 212686
7
2
1
Received nack credit for flit 188948
Requeued flit 188948
1
Received nack credit for flit 150306
Requeued flit 150306
Received nack credit for flit 223176
Requeued flit 223176
Received nack credit for flit 213221
Requeued flit 213221
8
Received nack credit for flit 105291
Requeued flit 105291
1
5
2
4
Received nack credit for flit 198574
Requeued flit 198574
Received nack credit for flit 105160
Requeued flit 105160
Received nack credit for flit 165822
Requeued flit 165822
1
Received nack credit for flit 207739
Requeued flit 207739
Received nack credit for flit 214111
Requeued flit 214111
3
1
Received nack credit for flit 166560
Requeued flit 166560
3
1
2
Received nack credit for flit 168063
Requeued flit 168063
Received nack credit for flit 137537
Requeued flit 137537
Received nack credit for flit 198028
Requeued flit 198028
Received nack credit for flit 226722
Requeued flit 226722
1
1
2
4
Received nack credit for flit 214903
Requeued flit 214903
Received nack credit for flit 191455
Requeued flit 191455
Received nack credit for flit 170531
Requeued flit 170531
Received nack credit for flit 119133
Requeued flit 119133
2
2
Received nack credit for flit 205229
Requeued flit 205229
Received nack credit for flit 174572
Requeued flit 174572
3
Received nack credit for flit 178447
Requeued flit 178447
2
8
1
5
Received nack credit for flit 210070
Requeued flit 210070
Received nack credit for flit 195881
Requeued flit 195881
2
Received nack credit for flit 190425
Requeued flit 190425
Received nack credit for flit 212687
Requeued flit 212687
Received nack credit for flit 208653
Requeued flit 208653
4
Received nack credit for flit 223655
Requeued flit 223655
3
1
Received nack credit for flit 170359
Requeued flit 170359
Received nack credit for flit 227911
Requeued flit 227911
5
2
Received nack credit for flit 201754
Requeued flit 201754
Received nack credit for flit 193123
Requeued flit 193123
2
Received nack credit for flit 161071
Requeued flit 161071
3
3
Received nack credit for flit 170203
Requeued flit 170203
Received nack credit for flit 119299
Requeued flit 119299
1
8
Received nack credit for flit 211667
Requeued flit 211667
1
Received nack credit for flit 124042
Requeued flit 124042
Received nack credit for flit 212530
Requeued flit 212530
3
1
Received nack credit for flit 135585
Requeued flit 135585
Received nack credit for flit 229426
Requeued flit 229426
1
4
Received nack credit for flit 219119
Requeued flit 219119
Received nack credit for flit 132225
Requeued flit 132225
1
4
Received nack credit for flit 231718
Requeued flit 231718
Received nack credit for flit 120352
Requeued flit 120352
8
Received nack credit for flit 110369
Requeued flit 110369
1
Received nack credit for flit 221117
Requeued flit 221117
1
Received nack credit for flit 211937
Requeued flit 211937
1
4
3
3
Received nack credit for flit 214274
Requeued flit 214274
Received nack credit for flit 214665
Requeued flit 214665
Received nack credit for flit 188577
Requeued flit 188577
Received nack credit for flit 230828
Requeued flit 230828
2
4
1
1
Received nack credit for flit 221161
Requeued flit 221161
Received nack credit for flit 179368
Requeued flit 179368
Received nack credit for flit 221797
Requeued flit 221797
Received nack credit for flit 222074
Requeued flit 222074
1
2
1
3
4
Received nack credit for flit 222344
Requeued flit 222344
Received nack credit for flit 216378
Requeued flit 216378
Received nack credit for flit 171379
Requeued flit 171379
Received nack credit for flit 143407
Requeued flit 143407
Received nack credit for flit 191263
Requeued flit 191263
3
1
Received nack credit for flit 166934
Requeued flit 166934
Received nack credit for flit 181652
Requeued flit 181652
2
Received nack credit for flit 179389
Requeued flit 179389
7
5
Received nack credit for flit 113013
Requeued flit 113013
Received nack credit for flit 165801
Requeued flit 165801
1
Received nack credit for flit 201731
Requeued flit 201731
6
Received nack credit for flit 231508
Requeued flit 231508
5
Received nack credit for flit 119772
Requeued flit 119772
8
3
Received nack credit for flit 109190
Requeued flit 109190
1
Received nack credit for flit 216085
Requeued flit 216085
Received nack credit for flit 203203
Requeued flit 203203
6
Received nack credit for flit 115182
Requeued flit 115182
4
2
Received nack credit for flit 194517
Requeued flit 194517
Received nack credit for flit 143562
Requeued flit 143562
1
2
1
Received nack credit for flit 237546
Requeued flit 237546
2
Received nack credit for flit 235304
Requeued flit 235304
Received nack credit for flit 226697
Requeued flit 226697
10
Received nack credit for flit 207902
Requeued flit 207902
Received nack credit for flit 114920
Requeued flit 114920
3
7
4
Received nack credit for flit 176116
Requeued flit 176116
1
1
1
Received nack credit for flit 113719
Requeued flit 113719
1
Received nack credit for flit 236299
Requeued flit 236299
1
Received nack credit for flit 213009
Requeued flit 213009
Received nack credit for flit 227647
Requeued flit 227647
Received nack credit for flit 227466
Requeued flit 227466
1
Received nack credit for flit 213092
Requeued flit 213092
2
6
Received nack credit for flit 235929
Requeued flit 235929
4
1
Received nack credit for flit 219214
Requeued flit 219214
Received nack credit for flit 214504
Requeued flit 214504
Received nack credit for flit 216678
Requeued flit 216678
Received nack credit for flit 182196
Requeued flit 182196
2
Received nack credit for flit 172152
Requeued flit 172152
3
1
1
Received nack credit for flit 219369
Requeued flit 219369
Received nack credit for flit 216185
Requeued flit 216185
Received nack credit for flit 177716
Requeued flit 177716
1
3
4
5
Received nack credit for flit 229094
Requeued flit 229094
Received nack credit for flit 204079
Requeued flit 204079
Received nack credit for flit 219704
Requeued flit 219704
Received nack credit for flit 220072
Requeued flit 220072
3
6
1
Received nack credit for flit 229315
Requeued flit 229315
3
Received nack credit for flit 215357
Requeued flit 215357
Received nack credit for flit 217911
Requeued flit 217911
Received nack credit for flit 188185
Requeued flit 188185
2
Received nack credit for flit 145008
Requeued flit 145008
1
1
Received nack credit for flit 230338
Requeued flit 230338
Received nack credit for flit 241180
Requeued flit 241180
7
2
Received nack credit for flit 183625
Requeued flit 183625
Received nack credit for flit 210425
Requeued flit 210425
1
1
4
Received nack credit for flit 218245
Requeued flit 218245
3
6
Received nack credit for flit 188672
Requeued flit 188672
Received nack credit for flit 173144
Requeued flit 173144
1
Received nack credit for flit 143246
Requeued flit 143246
Received nack credit for flit 221137
Requeued flit 221137
Received nack credit for flit 197134
Requeued flit 197134
10
1
Received nack credit for flit 223819
Requeued flit 223819
1
1
Received nack credit for flit 169108
Requeued flit 169108
Received nack credit for flit 220655
Requeued flit 220655
Received nack credit for flit 238380
Requeued flit 238380
1
2
Received nack credit for flit 206001
Requeued flit 206001
3
2
Received nack credit for flit 187351
Requeued flit 187351
Received nack credit for flit 150779
Requeued flit 150779
Received nack credit for flit 204991
Requeued flit 204991
5
1
Received nack credit for flit 177621
Requeued flit 177621
3
Received nack credit for flit 238542
Requeued flit 238542
2
Received nack credit for flit 128819
Requeued flit 128819
1
Received nack credit for flit 223996
Requeued flit 223996
Received nack credit for flit 233256
Requeued flit 233256
1
6
2
4
1
Received nack credit for flit 226890
Requeued flit 226890
Received nack credit for flit 224751
Requeued flit 224751
Received nack credit for flit 204978
Requeued flit 204978
Received nack credit for flit 188432
Requeued flit 188432
Received nack credit for flit 221674
Requeued flit 221674
7
Received nack credit for flit 204497
Requeued flit 204497
4
6
1
9
1
Received nack credit for flit 242976
Requeued flit 242976
Received nack credit for flit 177712
Requeued flit 177712
Received nack credit for flit 234517
Requeued flit 234517
3
7
Received nack credit for flit 195744
Requeued flit 195744
4
Received nack credit for flit 205293
Requeued flit 205293
Received nack credit for flit 117715
Requeued flit 117715
Received nack credit for flit 125976
Requeued flit 125976
Received nack credit for flit 184329
Requeued flit 184329
6
1
7
Received nack credit for flit 116678
Requeued flit 116678
3
Received nack credit for flit 196316
Requeued flit 196316
4
Received nack credit for flit 210052
Requeued flit 210052
Received nack credit for flit 226837
Requeued flit 226837
Received nack credit for flit 227560
Requeued flit 227560
8
5
Received nack credit for flit 165836
Requeued flit 165836
Received nack credit for flit 223925
Requeued flit 223925
3
1
Received nack credit for flit 223582
Requeued flit 223582
Received nack credit for flit 244452
Requeued flit 244452
3
4
Received nack credit for flit 213732
Requeued flit 213732
5
Received nack credit for flit 182607
Requeued flit 182607
Received nack credit for flit 215813
Requeued flit 215813
2
1
Received nack credit for flit 243372
Requeued flit 243372
7
Received nack credit for flit 206643
Requeued flit 206643
Received nack credit for flit 119428
Requeued flit 119428
8
1
4
Received nack credit for flit 223850
Requeued flit 223850
Received nack credit for flit 227694
Requeued flit 227694
Received nack credit for flit 118409
Requeued flit 118409
1
Received nack credit for flit 245003
Requeued flit 245003
3
1
1
Received nack credit for flit 169653
Requeued flit 169653
Received nack credit for flit 238049
Requeued flit 238049
3
4
1
Received nack credit for flit 226208
Requeued flit 226208
Received nack credit for flit 204115
Requeued flit 204115
Received nack credit for flit 133438
Requeued flit 133438
Received nack credit for flit 199116
Requeued flit 199116
6
1
Received nack credit for flit 233825
Requeued flit 233825
8
Received nack credit for flit 238803
Requeued flit 238803
Received nack credit for flit 216288
Requeued flit 216288
4
Received nack credit for flit 186818
Requeued flit 186818
3
Received nack credit for flit 230822
Requeued flit 230822
8
3
1
Received nack credit for flit 174618
Requeued flit 174618
Received nack credit for flit 229626
Requeued flit 229626
Received nack credit for flit 226175
Requeued flit 226175
6
1
4
3
Received nack credit for flit 211047
Requeued flit 211047
Received nack credit for flit 240132
Requeued flit 240132
Received nack credit for flit 182282
Requeued flit 182282
Received nack credit for flit 128999
Requeued flit 128999
2
Received nack credit for flit 247259
Requeued flit 247259
4
5
Received nack credit for flit 188839
Requeued flit 188839
Received nack credit for flit 229907
Requeued flit 229907
6
2
4
Received nack credit for flit 126440
Requeued flit 126440
Received nack credit for flit 234755
Requeued flit 234755
Received nack credit for flit 134268
Requeued flit 134268
3
3
2
1
3
Received nack credit for flit 247814
Requeued flit 247814
Received nack credit for flit 160428
Requeued flit 160428
3
Received nack credit for flit 198721
Requeued flit 198721
Received nack credit for flit 232158
Requeued flit 232158
Received nack credit for flit 160205
Requeued flit 160205
Received nack credit for flit 245476
Requeued flit 245476
1
2
Received nack credit for flit 209746
Requeued flit 209746
Received nack credit for flit 197734
Requeued flit 197734
6
4
Received nack credit for flit 234992
Requeued flit 234992
Received nack credit for flit 223996
Requeued flit 223996
12
Received nack credit for flit 110797
Requeued flit 110797
1
2
Received nack credit for flit 230349
Requeued flit 230349
Received nack credit for flit 197088
Requeued flit 197088
5
Received nack credit for flit 163148
Requeued flit 163148
1
1
7
2
Received nack credit for flit 243899
Requeued flit 243899
Received nack credit for flit 200286
Requeued flit 200286
4
Received nack credit for flit 130087
Requeued flit 130087
Received nack credit for flit 236207
Requeued flit 236207
Received nack credit for flit 131252
Requeued flit 131252
7
Received nack credit for flit 128427
Requeued flit 128427
2
2
Received nack credit for flit 231404
Requeued flit 231404
1
2
Received nack credit for flit 245070
Requeued flit 245070
Received nack credit for flit 234614
Requeued flit 234614
Received nack credit for flit 200570
Requeued flit 200570
1
1
Received nack credit for flit 253364
Requeued flit 253364
3
Received nack credit for flit 205475
Requeued flit 205475
2
1
Received nack credit for flit 133149
Requeued flit 133149
Received nack credit for flit 157141
Requeued flit 157141
Received nack credit for flit 232852
Requeued flit 232852
1
Received nack credit for flit 200380
Requeued flit 200380
2
Received nack credit for flit 233351
Requeued flit 233351
5
2
3
Received nack credit for flit 253699
Requeued flit 253699
Received nack credit for flit 155600
Requeued flit 155600
Received nack credit for flit 160944
Requeued flit 160944
2
3
Received nack credit for flit 162275
Requeued flit 162275
Received nack credit for flit 175416
Requeued flit 175416
1
4
7
Received nack credit for flit 209054
Requeued flit 209054
Received nack credit for flit 242460
Requeued flit 242460
Received nack credit for flit 128422
Requeued flit 128422
1
5
Received nack credit for flit 206167
Requeued flit 206167
Received nack credit for flit 145397
Requeued flit 145397
7
8
Received nack credit for flit 128277
Requeued flit 128277
Received nack credit for flit 186411
Requeued flit 186411
7
Received nack credit for flit 240486
Requeued flit 240486
3
1
Received nack credit for flit 198496
Requeued flit 198496
Received nack credit for flit 206614
Requeued flit 206614
4
6
1
Received nack credit for flit 225512
Requeued flit 225512
Received nack credit for flit 189870
Requeued flit 189870
Received nack credit for flit 206268
Requeued flit 206268
2
Received nack credit for flit 265189
Requeued flit 265189
3
4
2
Received nack credit for flit 198421
Requeued flit 198421
Received nack credit for flit 241372
Requeued flit 241372
3
Received nack credit for flit 238856
Requeued flit 238856
2
1
Received nack credit for flit 241674
Requeued flit 241674
Received nack credit for flit 238603
Requeued flit 238603
Received nack credit for flit 250040
Requeued flit 250040
1
Received nack credit for flit 249905
Requeued flit 249905
2
Received nack credit for flit 237755
Requeued flit 237755
6
2
Received nack credit for flit 203453
Requeued flit 203453
Received nack credit for flit 242852
Requeued flit 242852
5
2
Received nack credit for flit 127001
Requeued flit 127001
5
Received nack credit for flit 181556
Requeued flit 181556
Received nack credit for flit 195454
Requeued flit 195454
1
1
3
Received nack credit for flit 239093
Requeued flit 239093
Received nack credit for flit 207082
Requeued flit 207082
Received nack credit for flit 202676
Requeued flit 202676
2
Received nack credit for flit 260287
Requeued flit 260287
1
Received nack credit for flit 252292
Requeued flit 252292
3
6
3
Received nack credit for flit 260677
Requeued flit 260677
Received nack credit for flit 132704
Requeued flit 132704
1
Received nack credit for flit 206820
Requeued flit 206820
Received nack credit for flit 212143
Requeued flit 212143
2
1
Received nack credit for flit 181604
Requeued flit 181604
1
Received nack credit for flit 213832
[...]
3
2
Received nack credit for flit 275238
Requeued flit 275238
2
1
Received nack credit for flit 192387
Requeued flit 192387
Received nack credit for flit 308017
Requeued flit 308017
Received nack credit for flit 309706
Requeued flit 309706
Received nack credit for flit 329010
Requeued flit 329010
Received nack credit for flit 323783
Requeued flit 323783
1
1
Received nack credit for flit 323512
Requeued flit 323512
Received nack credit for flit 308241
Requeued flit 308241
5
2
6
Received nack credit for flit 256615
Requeued flit 256615
Received nack credit for flit 270388
Requeued flit 270388
Received nack credit for flit 254026
Requeued flit 254026
2
2
7
4
1
Received nack credit for flit 284853
Requeued flit 284853
Received nack credit for flit 173917
Requeued flit 173917
Received nack credit for flit 181056
Requeued flit 181056
1
Received nack credit for flit 312105
Requeued flit 312105
3
1
Received nack credit for flit 289876
Requeued flit 289876
1
Received nack credit for flit 309763
Requeued flit 309763
Received nack credit for flit 288656
Requeued flit 288656
Received nack credit for flit 325777
Requeued flit 325777
2
Received nack credit for flit 285132
Requeued flit 285132
3
Received nack credit for flit 330717
Requeued flit 330717
2
Received nack credit for flit 327780
Requeued flit 327780
Received nack credit for flit 310246
Requeued flit 310246
13
2
Received nack credit for flit 166441
Requeued flit 166441
2
Received nack credit for flit 225869
Requeued flit 225869
Received nack credit for flit 327417
Requeued flit 327417
6
4
Received nack credit for flit 199582
Requeued flit 199582
2
Received nack credit for flit 314809
Requeued flit 314809
Received nack credit for flit 273675
Requeued flit 273675
4
2
Received nack credit for flit 201760
Requeued flit 201760
Received nack credit for flit 291648
Requeued flit 291648
1
1
Received nack credit for flit 289571
Requeued flit 289571
2
4
3
Received nack credit for flit 325284
Requeued flit 325284
3
1
5
Received nack credit for flit 265327
Requeued flit 265327
Received nack credit for flit 311708
Requeued flit 311708
Received nack credit for flit 331419
Requeued flit 331419
Received nack credit for flit 325121
Requeued flit 325121
Received nack credit for flit 228426
Requeued flit 228426
Received nack credit for flit 331391
Requeued flit 331391
1
1
Received nack credit for flit 325659
Requeued flit 325659
1
Received nack credit for flit 318340
Requeued flit 318340
4
2
3
Received nack credit for flit 320766
Requeued flit 320766
Received nack credit for flit 287898
Requeued flit 287898
6
Received nack credit for flit 313143
Requeued flit 313143
Received nack credit for flit 313059
Requeued flit 313059
1
7
Received nack credit for flit 307452
Requeued flit 307452
Received nack credit for flit 291270
Requeued flit 291270
1
Received nack credit for flit 258427
Requeued flit 258427
Received nack credit for flit 327063
Requeued flit 327063
7
Received nack credit for flit 316784
Requeued flit 316784
5
2
Received nack credit for flit 313136
Requeued flit 313136
Received nack credit for flit 227682
Requeued flit 227682
1
Received nack credit for flit 318383
Requeued flit 318383
5
Received nack credit for flit 267234
Requeued flit 267234
4
3
Received nack credit for flit 279233
Requeued flit 279233
5
5
Received nack credit for flit 318435
Requeued flit 318435
Received nack credit for flit 270046
Requeued flit 270046
1
Received nack credit for flit 206031
Requeued flit 206031
Received nack credit for flit 290579
Requeued flit 290579
4
Received nack credit for flit 205526
Requeued flit 205526
6
3
Received nack credit for flit 310594
Requeued flit 310594
1
Received nack credit for flit 332244
Requeued flit 332244
Received nack credit for flit 318805
Requeued flit 318805
2
10
Received nack credit for flit 253429
Requeued flit 253429
Received nack credit for flit 166081
Requeued flit 166081
1
6
Received nack credit for flit 330761
Requeued flit 330761
Received nack credit for flit 335667
Requeued flit 335667
9
1
1
3
Received nack credit for flit 298962
Requeued flit 298962
Received nack credit for flit 331293
Requeued flit 331293
Received nack credit for flit 330990
Requeued flit 330990
8
Received nack credit for flit 312457
Requeued flit 312457
Received nack credit for flit 252926
Requeued flit 252926
6
1
6
7
2
1
Received nack credit for flit 269804
Requeued flit 269804
Received nack credit for flit 320924
Requeued flit 320924
Received nack credit for flit 264398
Requeued flit 264398
Received nack credit for flit 320813
Requeued flit 320813
3
Received nack credit for flit 333891
Requeued flit 333891
1
2
5
Received nack credit for flit 294549
Requeued flit 294549
Received nack credit for flit 336952
Requeued flit 336952
1
Received nack credit for flit 321657
Requeued flit 321657
Received nack credit for flit 236829
Requeued flit 236829
Received nack credit for flit 230372
Requeued flit 230372
Received nack credit for flit 334200
Requeued flit 334200
3
1
Received nack credit for flit 282124
Requeued flit 282124
Received nack credit for flit 295679
Requeued flit 295679
4
Received nack credit for flit 334948
Requeued flit 334948
4
1
Received nack credit for flit 252059
Requeued flit 252059
4
Received nack credit for flit 320249
Requeued flit 320249
5
2
Received nack credit for flit 272849
Requeued flit 272849
4
Received nack credit for flit 268484
Requeued flit 268484
Received nack credit for flit 234565
Requeued flit 234565
Received nack credit for flit 318937
Requeued flit 318937
1
1
Received nack credit for flit 321843
Requeued flit 321843
Received nack credit for flit 321930
Requeued flit 321930
1
5
1
Received nack credit for flit 173712
Requeued flit 173712
Received nack credit for flit 292453
Requeued flit 292453
Received nack credit for flit 299149
Requeued flit 299149
8
Received nack credit for flit 307143
Requeued flit 307143
1
Received nack credit for flit 341698
Requeued flit 341698
1
3
Received nack credit for flit 336985
Requeued flit 336985
7
Received nack credit for flit 264761
Requeued flit 264761
Received nack credit for flit 170818
Requeued flit 170818
5
Received nack credit for flit 325326
Requeued flit 325326
1
4
Received nack credit for flit 180128
Requeued flit 180128
Received nack credit for flit 324632
Requeued flit 324632
3
Received nack credit for flit 270791
Requeued flit 270791
1
Received nack credit for flit 338008
Requeued flit 338008
1
5
2
Received nack credit for flit 354389
Requeued flit 354389
Received nack credit for flit 211160
Requeued flit 211160
Received nack credit for flit 326454
Requeued flit 326454
2
1
2
Received nack credit for flit 244521
Requeued flit 244521
Received nack credit for flit 342676
Requeued flit 342676
2
Received nack credit for flit 323494
Requeued flit 323494
4
Received nack credit for flit 266037
Requeued flit 266037
1
1
Received nack credit for flit 186325
Requeued flit 186325
Received nack credit for flit 324356
Requeued flit 324356
Received nack credit for flit 302270
Requeued flit 302270
5
7
5
Received nack credit for flit 177107
Requeued flit 177107
Received nack credit for flit 177128
Requeued flit 177128
Received nack credit for flit 337430
Requeued flit 337430
2
1
Received nack credit for flit 324363
Requeued flit 324363
Received nack credit for flit 340048
Requeued flit 340048
1
3
1
Received nack credit for flit 340329
Requeued flit 340329
Received nack credit for flit 340517
Requeued flit 340517
Received nack credit for flit 326387
Requeued flit 326387
1
6
Received nack credit for flit 342068
Requeued flit 342068
Received nack credit for flit 275996
Requeued flit 275996
1
1
1
Received nack credit for flit 304338
Requeued flit 304338
5
Received nack credit for flit 341195
Requeued flit 341195
Received nack credit for flit 178859
Requeued flit 178859
5
1
Received nack credit for flit 305661
Requeued flit 305661
1
Received nack credit for flit 226485
Requeued flit 226485
Received nack credit for flit 330315
Requeued flit 330315
Received nack credit for flit 328287
Requeued flit 328287
4
Received nack credit for flit 327060
Requeued flit 327060
2
2
6
Received nack credit for flit 246121
Requeued flit 246121
1
Received nack credit for flit 345617
Requeued flit 345617
1
Received nack credit for flit 330045
Requeued flit 330045
Received nack credit for flit 303935
Requeued flit 303935
Received nack credit for flit 302640
Requeued flit 302640
6
Received nack credit for flit 292879
Requeued flit 292879
3
Received nack credit for flit 342946
Requeued flit 342946
5
5
Received nack credit for flit 344529
Requeued flit 344529
Received nack credit for flit 274745
Requeued flit 274745
1
1
1
Received nack credit for flit 348669
Requeued flit 348669
6
5
Received nack credit for flit 330785
Requeued flit 330785
Received nack credit for flit 345377
Requeued flit 345377
Received nack credit for flit 344956
Requeued flit 344956
3
Received nack credit for flit 216583
Requeued flit 216583
Received nack credit for flit 347138
Requeued flit 347138
3
6
Received nack credit for flit 281110
Requeued flit 281110
1
Received nack credit for flit 214520
Requeued flit 214520
Received nack credit for flit 329168
Requeued flit 329168
4
Received nack credit for flit 296261
Requeued flit 296261
1
1
Received nack credit for flit 333410
Requeued flit 333410
Received nack credit for flit 309782
Requeued flit 309782
1
1
4
Received nack credit for flit 308911
Requeued flit 308911
Received nack credit for flit 202055
Requeued flit 202055
Received nack credit for flit 305529
Requeued flit 305529
2
Received nack credit for flit 275692
Requeued flit 275692
3
3
Received nack credit for flit 282611
Requeued flit 282611
Received nack credit for flit 363021
Requeued flit 363021
1
2
5
3
Received nack credit for flit 347425
Requeued flit 347425
Received nack credit for flit 296602
Requeued flit 296602
Received nack credit for flit 297255
Requeued flit 297255
Received nack credit for flit 213111
Requeued flit 213111
1
1
7
Received nack credit for flit 348200
Requeued flit 348200
1
Received nack credit for flit 339440
Requeued flit 339440
5
Received nack credit for flit 271371
Requeued flit 271371
Received nack credit for flit 313958
Requeued flit 313958
Received nack credit for flit 343352
Requeued flit 343352
4
Received nack credit for flit 286172
Requeued flit 286172
1
Received nack credit for flit 355346
Requeued flit 355346
4
7
6
Received nack credit for flit 334910
Requeued flit 334910
Received nack credit for flit 228990
Requeued flit 228990
Received nack credit for flit 321393
Requeued flit 321393
7
5
1
Received nack credit for flit 212824
Requeued flit 212824
Received nack credit for flit 335478
Requeued flit 335478
4
Received nack credit for flit 337830
Requeued flit 337830
Received nack credit for flit 191645
Requeued flit 191645
2
4
8
Received nack credit for flit 338859
Requeued flit 338859
2
Received nack credit for flit 188544
Requeued flit 188544
Received nack credit for flit 357042
Requeued flit 357042
Received nack credit for flit 301738
Requeued flit 301738
6
Received nack credit for flit 349164
Requeued flit 349164
2
Received nack credit for flit 253755
Requeued flit 253755
1
Received nack credit for flit 350899
Requeued flit 350899
1
5
Received nack credit for flit 337987
Requeued flit 337987
2
2
Received nack credit for flit 338547
Requeued flit 338547
Received nack credit for flit 340177
Requeued flit 340177
Received nack credit for flit 245787
Requeued flit 245787
1
2
2
Received nack credit for flit 316029
Requeued flit 316029
Received nack credit for flit 338013
Requeued flit 338013
3
Received nack credit for flit 354050
Requeued flit 354050
Received nack credit for flit 338935
Requeued flit 338935
3
Received nack credit for flit 350203
Requeued flit 350203
3
6
Received nack credit for flit 280840
Requeued flit 280840
10
Received nack credit for flit 290191
Requeued flit 290191
1
Received nack credit for flit 182315
Requeued flit 182315
5
Received nack credit for flit 318406
Requeued flit 318406
Received nack credit for flit 190808
Requeued flit 190808
6
2
Received nack credit for flit 304580
Requeued flit 304580
Received nack credit for flit 190848
Requeued flit 190848
5
3
Received nack credit for flit 350323
Requeued flit 350323
Received nack credit for flit 341470
Requeued flit 341470
3
2
Received nack credit for flit 307712
Requeued flit 307712
2
Received nack credit for flit 356555
Requeued flit 356555
Received nack credit for flit 344005
Requeued flit 344005
2
2
7
2
1
Received nack credit for flit 186168
Requeued flit 186168
Received nack credit for flit 284272
Requeued flit 284272
Received nack credit for flit 355922
Requeued flit 355922
1
Received nack credit for flit 261872
Requeued flit 261872
Received nack credit for flit 371539
Requeued flit 371539
4
Received nack credit for flit 345081
Requeued flit 345081
5
4
4
Received nack credit for flit 288357
Requeued flit 288357
Received nack credit for flit 341013
Requeued flit 341013
Received nack credit for flit 296004
Requeued flit 296004
6
4
Received nack credit for flit 195202
Requeued flit 195202
Received nack credit for flit 296493
Requeued flit 296493
1
1
1
Received nack credit for flit 320154
Requeued flit 320154
Received nack credit for flit 357089
Requeued flit 357089
Received nack credit for flit 357350
Requeued flit 357350
1
1
Received nack credit for flit 346412
Requeued flit 346412
Received nack credit for flit 345375
Requeued flit 345375
4
3
Received nack credit for flit 246500
Requeued flit 246500
Received nack credit for flit 290993
Requeued flit 290993
1
1
Received nack credit for flit 345822
Requeued flit 345822
1
Received nack credit for flit 358574
Requeued flit 358574
Received nack credit for flit 358159
Requeued flit 358159
1
4
3
Received nack credit for flit 343091
Requeued flit 343091
Received nack credit for flit 322566
Requeued flit 322566
Received nack credit for flit 344948
Requeued flit 344948
1
Received nack credit for flit 359218
Requeued flit 359218
5
Received nack credit for flit 346405
Requeued flit 346405
1
3
9
Received nack credit for flit 347596
Requeued flit 347596
Received nack credit for flit 348788
Requeued flit 348788
Received nack credit for flit 332274
Requeued flit 332274
5
1
Received nack credit for flit 341148
Requeued flit 341148
Received nack credit for flit 320530
Requeued flit 320530
1
4
Received nack credit for flit 360191
Requeued flit 360191
Received nack credit for flit 363316
Requeued flit 363316
3
6
Received nack credit for flit 253225
Requeued flit 253225
1
Received nack credit for flit 342154
Requeued flit 342154
Received nack credit for flit 364376
Requeued flit 364376
7
5
Received nack credit for flit 235726
Requeued flit 235726
Received nack credit for flit 296884
Requeued flit 296884
3
Received nack credit for flit 222780
Requeued flit 222780
1
7
Received nack credit for flit 350356
Requeued flit 350356
Received nack credit for flit 246190
Requeued flit 246190
4
Received nack credit for flit 364438
Requeued flit 364438
4
Received nack credit for flit 304626
Requeued flit 304626
6
11
Received nack credit for flit 347996
Requeued flit 347996
Received nack credit for flit 233182
Requeued flit 233182
2
2
Received nack credit for flit 350450
Requeued flit 350450
1
4
Received nack credit for flit 363937
Requeued flit 363937
5
Received nack credit for flit 337450
Requeued flit 337450
4
Received nack credit for flit 353585
Requeued flit 353585
3
Received nack credit for flit 370134
Requeued flit 370134
1
Received nack credit for flit 195421
Requeued flit 195421
1
Received nack credit for flit 229930
Requeued flit 229930
6
Received nack credit for flit 328289
Requeued flit 328289
3
5
Received nack credit for flit 242859
Requeued flit 242859
Received nack credit for flit 327136
Requeued flit 327136
Received nack credit for flit 350712
Requeued flit 350712
Received nack credit for flit 239267
Requeued flit 239267
5
1
Received nack credit for flit 335296
Requeued flit 335296
2
Received nack credit for flit 353874
Requeued flit 353874
Received nack credit for flit 371616
Requeued flit 371616
1
2
Received nack credit for flit 353469
Requeued flit 353469
Received nack credit for flit 354349
Requeued flit 354349
5
1
Received nack credit for flit 294981
Requeued flit 294981
Received nack credit for flit 330586
Requeued flit 330586
4
4
1
Received nack credit for flit 305639
Requeued flit 305639
Received nack credit for flit 203770
Requeued flit 203770
Received nack credit for flit 330367
Requeued flit 330367
3
Received nack credit for flit 366465
Requeued flit 366465
7
Received nack credit for flit 193358
Requeued flit 193358
2
Received nack credit for flit 368353
Requeued flit 368353
1
Received nack credit for flit 358526
Requeued flit 358526
5
Received nack credit for flit 285011
Requeued flit 285011
1
Received nack credit for flit 359821
Requeued flit 359821
4
Received nack credit for flit 231654
Requeued flit 231654
4
Received nack credit for flit 309661
Requeued flit 309661
1
2
6
Received nack credit for flit 375426
Requeued flit 375426
2
Received nack credit for flit 369397
Requeued flit 369397
Received nack credit for flit 240746
Requeued flit 240746
Received nack credit for flit 270779
Requeued flit 270779
5
Received nack credit for flit 309460
Requeued flit 309460
2
1
Received nack credit for flit 355065
Requeued flit 355065
Received nack credit for flit 371171
Requeued flit 371171
4
1
3
Received nack credit for flit 385919
Requeued flit 385919
Received nack credit for flit 307688
Requeued flit 307688
Received nack credit for flit 359595
Requeued flit 359595
1
Received nack credit for flit 336917
Requeued flit 336917
2
4
1
Received nack credit for flit 295375
Requeued flit 295375
Received nack credit for flit 360335
Requeued flit 360335
Received nack credit for flit 371643
Requeued flit 371643
1
1
Received nack credit for flit 334116
Requeued flit 334116
4
Received nack credit for flit 334877
Requeued flit 334877
Received nack credit for flit 363385
Requeued flit 363385
1
Received nack credit for flit 373553
Requeued flit 373553
1
4
Received nack credit for flit 252255
Requeued flit 252255
Received nack credit for flit 363568
Requeued flit 363568
5
1
Received nack credit for flit 267508
Requeued flit 267508
Received nack credit for flit 361612
Requeued flit 361612
3
1
Received nack credit for flit 322636
Requeued flit 322636
Received nack credit for flit 374854
Requeued flit 374854
1
1
Received nack credit for flit 374831
Requeued flit 374831
1
Received nack credit for flit 376120
Requeued flit 376120
Received nack credit for flit 376378
Requeued flit 376378
1
1
1
2
5
Received nack credit for flit 377252
Requeued flit 377252
Received nack credit for flit 363173
Requeued flit 363173
Received nack credit for flit 324672
Requeued flit 324672
Received nack credit for flit 363821
Requeued flit 363821
Received nack credit for flit 349081
Requeued flit 349081
1
1
Received nack credit for flit 376366
Requeued flit 376366
Class 0:
Packet latency average = 1421.86
	minimum = 5
	maximum = 6323
Network latency average = 1303.33
	minimum = 5
	maximum = 6323
Slowest packet = 182710
Flit latency average = 1303.33
	minimum = 5
	maximum = 6323
Slowest flit = 182710
Fragmentation average = 0
	minimum = 0
	maximum = 0
Injected packet rate average = 0.613834
	minimum = 0.4475 (at node 9)
	maximum = 0.8046 (at node 52)
Accepted packet rate average = 0.504437
	minimum = 0.486 (at node 21)
	maximum = 0.5223 (at node 14)
Injected flit rate average = 0.613834
	minimum = 0.4475 (at node 9)
	maximum = 0.8046 (at node 52)
Accepted flit rate average= 0.504437
	minimum = 0.486 (at node 21)
	maximum = 0.5223 (at node 14)
Injected packet length average = 1
Accepted packet length average = 1
Total in-flight flits = 70044 (0 measured)
latency change    = 1
throughput change = 1
Average latency for class 0 exceeded 500 cycles. Aborting simulation.
Too many sample periods needed to converge
Simulation unstable, ending ...
Total run time 51.5195
