BEGIN Configuration File: examples/ecc_mesh88_config_1_0.010_link_5
// $Id$

// Copyright (c) 2007-2015, Trustees of The Leland Stanford Junior University
// All rights reserved.
//
// Redistribution and use in source and binary forms, with or without
// modification, are permitted provided that the following conditions are met:
//
// Redistributions of source code must retain the above copyright notice, this
// list of conditions and the following disclaimer.
// Redistributions in binary form must reproduce the above copyright notice,
// this list of conditions and the following disclaimer in the documentation
// and/or other materials provided with the distribution.
//
// THIS SOFTWARE IS PROVIDED BY THE COPYRIGHT HOLDERS AND CONTRIBUTORS "AS IS"
// AND ANY EXPRESS OR IMPLIED WARRANTIES, INCLUDING, BUT NOT LIMITED TO, THE
// IMPLIED WARRANTIES OF MERCHANTABILITY AND FITNESS FOR A PARTICULAR PURPOSE
// ARE DISCLAIMED. IN NO EVENT SHALL THE COPYRIGHT OWNER OR CONTRIBUTORS BE
// LIABLE FOR ANY DIRECT, INDIRECT, INCIDENTAL, SPECIAL, EXEMPLARY, OR
// CONSEQUENTIAL DAMAGES (INCLUDING, BUT NOT LIMITED TO, PROCUREMENT OF
// SUBSTITUTE GOODS OR SERVICES; LOSS OF USE, DATA, OR PROFITS; OR BUSINESS
// INTERRUPTION) HOWEVER CAUSED AND ON ANY THEORY OF LIABILITY, WHETHER IN
// CONTRACT, STRICT LIABILITY, OR TORT (INCLUDING NEGLIGENCE OR OTHERWISE)
// ARISING IN ANY WAY OUT OF THE USE OF THIS SOFTWARE, EVEN IF ADVISED OF THE
// POSSIBILITY OF SUCH DAMAGE.

// Dragonfly
//




vc_buf_size = 256;


wait_for_tail_credit = 0;

//
// Router architecture
//
vc_allocator = separable_input_first; 
sw_allocator = separable_input_first;
alloc_iters  = 1;

credit_delay   = 2;
routing_delay  = 0;
vc_alloc_delay = 1;
sw_alloc_delay = 1;
st_final_delay = 1;

input_speedup     = 1;
output_speedup    = 1;
internal_speedup  = 2.0;


warmup_periods = 3;
sim_count          = 1;

sample_period  = 10000;  


routing_function = dor;
num_vcs     = 2;

priority = none;
traffic       = uniform; 

injection_rate = 0.01;
packet_size = 1;
injection_rate_uses_flits = 1;

topology = mesh;

k  = 8;
n  = 2;

fer = 5;
ecc = link;

watch_out=-;
//watch_file = watch.txt;

ecc = link;

stats_out = examples/ecc_mesh88_config_1_0.010_link_5.m;

END Configuration File: examples/ecc_mesh88_config_1_0.010_link_5
1
Received nack credit for flit 4228
Requeued flit 4228
Class 0:
Packet latency average = 20.8457
	minimum = 5
	maximum = 158
Network latency average = 20.8457
	minimum = 5
	maximum = 158
Slowest packet = 4228
Flit latency average = 20.8457
	minimum = 5
	maximum = 158
Slowest flit = 4228
Fragmentation average = 0
	minimum = 0
	maximum = 0
Injected packet rate average = 0.00987344
	minimum = 0.0078 (at node 1)
	maximum = 0.0125 (at node 29)
Accepted packet rate average = 0.00985156
	minimum = 0.008 (at node 10)
	maximum = 0.0121 (at node 34)
Injected flit rate average = 0.00987344
	minimum = 0.0078 (at node 1)
	maximum = 0.0125 (at node 29)
Accepted flit rate average= 0.00985156
	minimum = 0.008 (at node 10)
	maximum = 0.0121 (at node 34)
Injected packet length average = 1
Accepted packet length average = 1
Total in-flight flits = 14 (0 measured)
latency change    = 1
throughput change = 1
2
Received nack credit for flit 11695
Requeued flit 11695
Class 0:
Packet latency average = 20.766
	minimum = 5
	maximum = 158
Network latency average = 20.766
	minimum = 5
	maximum = 158
Slowest packet = 4228
Flit latency average = 20.766
	minimum = 5
	maximum = 158
Slowest flit = 4228
Fragmentation average = 0
	minimum = 0
	maximum = 0
Injected packet rate average = 0.00993906
	minimum = 0.0086 (at node 2)
	maximum = 0.01165 (at node 17)
Accepted packet rate average = 0.00992266
	minimum = 0.00825 (at node 36)
	maximum = 0.0113 (at node 14)
Injected flit rate average = 0.00993906
	minimum = 0.0086 (at node 2)
	maximum = 0.01165 (at node 17)
Accepted flit rate average= 0.00992266
	minimum = 0.00825 (at node 36)
	maximum = 0.0113 (at node 14)
Injected packet length average = 1
Accepted packet length average = 1
Total in-flight flits = 21 (0 measured)
latency change    = 0.00383682
throughput change = 0.00716479
Class 0:
Packet latency average = 20.7611
	minimum = 5
	maximum = 47
Network latency average = 20.7611
	minimum = 5
	maximum = 47
Slowest packet = 13501
Flit latency average = 20.7611
	minimum = 5
	maximum = 47
Slowest flit = 13501
Fragmentation average = 0
	minimum = 0
	maximum = 0
Injected packet rate average = 0.0100344
	minimum = 0.007 (at node 29)
	maximum = 0.0121 (at node 19)
Accepted packet rate average = 0.0100391
	minimum = 0.0081 (at node 30)
	maximum = 0.0123 (at node 10)
Injected flit rate average = 0.0100344
	minimum = 0.007 (at node 29)
	maximum = 0.0121 (at node 19)
Accepted flit rate average= 0.0100391
	minimum = 0.0081 (at node 30)
	maximum = 0.0123 (at node 10)
Injected packet length average = 1
Accepted packet length average = 1
Total in-flight flits = 18 (0 measured)
latency change    = 0.000236653
throughput change = 0.0115953
Warmed up ...Time used is 30000 cycles
Class 0:
Packet latency average = 20.8225
	minimum = 5
	maximum = 47
Network latency average = 20.8225
	minimum = 5
	maximum = 47
Slowest packet = 19932
Flit latency average = 20.8375
	minimum = 5
	maximum = 47
Slowest flit = 19932
Fragmentation average = 0
	minimum = 0
	maximum = 0
Injected packet rate average = 0.0099625
	minimum = 0.0078 (at node 3)
	maximum = 0.0122 (at node 42)
Accepted packet rate average = 0.00997344
	minimum = 0.0079 (at node 43)
	maximum = 0.0119 (at node 10)
Injected flit rate average = 0.0099625
	minimum = 0.0078 (at node 3)
	maximum = 0.0122 (at node 42)
Accepted flit rate average= 0.00997344
	minimum = 0.0079 (at node 43)
	maximum = 0.0119 (at node 10)
Injected packet length average = 1
Accepted packet length average = 1
Total in-flight flits = 11 (11 measured)
latency change    = 0.00294764
throughput change = 0.00657998
Class 0:
Packet latency average = 20.878
	minimum = 5
	maximum = 48
Network latency average = 20.878
	minimum = 5
	maximum = 48
Slowest packet = 30993
Flit latency average = 20.8854
	minimum = 5
	maximum = 48
Slowest flit = 30993
Fragmentation average = 0
	minimum = 0
	maximum = 0
Injected packet rate average = 0.00996484
	minimum = 0.00835 (at node 47)
	maximum = 0.0115 (at node 36)
Accepted packet rate average = 0.00996797
	minimum = 0.00835 (at node 28)
	maximum = 0.01125 (at node 8)
Injected flit rate average = 0.00996484
	minimum = 0.00835 (at node 47)
	maximum = 0.0115 (at node 36)
Accepted flit rate average= 0.00996797
	minimum = 0.00835 (at node 28)
	maximum = 0.01125 (at node 8)
Injected packet length average = 1
Accepted packet length average = 1
Total in-flight flits = 14 (14 measured)
latency change    = 0.00265766
throughput change = 0.000548632
8
Received nack credit for flit 35291
Requeued flit 35291
Class 0:
Packet latency average = 20.8357
	minimum = 5
	maximum = 67
Network latency average = 20.8357
	minimum = 5
	maximum = 67
Slowest packet = 35291
Flit latency average = 20.8407
	minimum = 5
	maximum = 67
Slowest flit = 35291
Fragmentation average = 0
	minimum = 0
	maximum = 0
Injected packet rate average = 0.010024
	minimum = 0.00876667 (at node 47)
	maximum = 0.0117667 (at node 36)
Accepted packet rate average = 0.0100276
	minimum = 0.00863333 (at node 17)
	maximum = 0.0112 (at node 10)
Injected flit rate average = 0.010024
	minimum = 0.00876667 (at node 47)
	maximum = 0.0117667 (at node 36)
Accepted flit rate average= 0.0100276
	minimum = 0.00863333 (at node 17)
	maximum = 0.0112 (at node 10)
Injected packet length average = 1
Accepted packet length average = 1
Total in-flight flits = 11 (11 measured)
latency change    = 0.00202714
throughput change = 0.00594713
Draining all recorded packets ...
Draining remaining packets ...
Time taken is 60067 cycles
====== Overall Traffic Statistics ======
====== Traffic class 0 ======
Packet latency average = 20.8371 (1 samples)
	minimum = 5 (1 samples)
	maximum = 67 (1 samples)
Network latency average = 20.8371 (1 samples)
	minimum = 5 (1 samples)
	maximum = 67 (1 samples)
Flit latency average = 20.8415 (1 samples)
	minimum = 5 (1 samples)
	maximum = 67 (1 samples)
Fragmentation average = 0 (1 samples)
	minimum = 0 (1 samples)
	maximum = 0 (1 samples)
Injected packet rate average = 0.010024 (1 samples)
	minimum = 0.00876667 (1 samples)
	maximum = 0.0117667 (1 samples)
Accepted packet rate average = 0.0100276 (1 samples)
	minimum = 0.00863333 (1 samples)
	maximum = 0.0112 (1 samples)
Injected flit rate average = 0.010024 (1 samples)
	minimum = 0.00876667 (1 samples)
	maximum = 0.0117667 (1 samples)
Accepted flit rate average = 0.0100276 (1 samples)
	minimum = 0.00863333 (1 samples)
	maximum = 0.0112 (1 samples)
Injected packet size average = 1 (1 samples)
Accepted packet size average = 1 (1 samples)
Hops average = 6.27237 (1 samples)
Total run time 10.1058
