BEGIN Configuration File: examples/ecc_mesh88_config_1_0.800_link_5
// $Id$

// Copyright (c) 2007-2015, Trustees of The Leland Stanford Junior University
// All rights reserved.
//
// Redistribution and use in source and binary forms, with or without
// modification, are permitted provided that the following conditions are met:
//
// Redistributions of source code must retain the above copyright notice, this
// list of conditions and the following disclaimer.
// Redistributions in binary form must reproduce the above copyright notice,
// this list of conditions and the following disclaimer in the documentation
// and/or other materials provided with the distribution.
//
// THIS SOFTWARE IS PROVIDED BY THE COPYRIGHT HOLDERS AND CONTRIBUTORS "AS IS"
// AND ANY EXPRESS OR IMPLIED WARRANTIES, INCLUDING, BUT NOT LIMITED TO, THE
// IMPLIED WARRANTIES OF MERCHANTABILITY AND FITNESS FOR A PARTICULAR PURPOSE
// ARE DISCLAIMED. IN NO EVENT SHALL THE COPYRIGHT OWNER OR CONTRIBUTORS BE
// LIABLE FOR ANY DIRECT, INDIRECT, INCIDENTAL, SPECIAL, EXEMPLARY, OR
// CONSEQUENTIAL DAMAGES (INCLUDING, BUT NOT LIMITED TO, PROCUREMENT OF
// SUBSTITUTE GOODS OR SERVICES; LOSS OF USE, DATA, OR PROFITS; OR BUSINESS
// INTERRUPTION) HOWEVER CAUSED AND ON ANY THEORY OF LIABILITY, WHETHER IN
// CONTRACT, STRICT LIABILITY, OR TORT (INCLUDING NEGLIGENCE OR OTHERWISE)
// ARISING IN ANY WAY OUT OF THE USE OF THIS SOFTWARE, EVEN IF ADVISED OF THE
// POSSIBILITY OF SUCH DAMAGE.

// Dragonfly
//




vc_buf_size = 256;


wait_for_tail_credit = 0;

//
// Router architecture
//
vc_allocator = separable_input_first; 
sw_allocator = separable_input_first;
alloc_iters  = 1;

credit_delay   = 2;
routing_delay  = 0;
vc_alloc_delay = 1;
sw_alloc_delay = 1;
st_final_delay = 1;

input_speedup     = 1;
output_speedup    = 1;
internal_speedup  = 2.0;


warmup_periods = 3;
sim_count          = 1;

sample_period  = 10000;  


routing_function = dor;
num_vcs     = 2;

priority = none;
traffic       = uniform; 

injection_rate = 0.8;
packet_size = 1;
injection_rate_uses_flits = 1;

topology = mesh;

k  = 8;
n  = 2;

fer = 5;
ecc = link;

watch_out=-;
//watch_file = watch.txt;

ecc = link;

stats_out = examples/ecc_mesh88_config_1_0.800_link_5.m;

END Configuration File: examples/ecc_mesh88_config_1_0.800_link_5
5
Received nack credit for flit 20889
Requeued flit 20889
2
Received nack credit for flit 35177
Requeued flit 35177
4
Received nack credit for flit 65254
Requeued flit 65254
2
Received nack credit for flit 92564
Requeued flit 92564
1
Received nack credit for flit 120664
Requeued flit 120664
11
Received nack credit for flit 63763
Requeued flit 63763
8
Received nack credit for flit 118359
Requeued flit 118359
4
Received nack credit for flit 183857
Requeued flit 183857
5
Received nack credit for flit 94674
Requeued flit 94674
4
Received nack credit for flit 103808
Requeued flit 103808
2
Received nack credit for flit 163814
Requeued flit 163814
2
Received nack credit for flit 217623
Requeued flit 217623
1
Received nack credit for flit 204477
Requeued flit 204477
1
Received nack credit for flit 214261
Requeued flit 214261
1
Received nack credit for flit 212718
Requeued flit 212718
2
Received nack credit for flit 185464
Requeued flit 185464
4
Received nack credit for flit 291258
Requeued flit 291258
2
Received nack credit for flit 324493
Requeued flit 324493
1
Received nack credit for flit 333319
Requeued flit 333319
2
Received nack credit for flit 357041
Requeued flit 357041
Class 0:
Packet latency average = 1408.75
	minimum = 5
	maximum = 6238
Network latency average = 1292.51
	minimum = 5
	maximum = 6235
Slowest packet = 183066
Flit latency average = 1292.51
	minimum = 5
	maximum = 6235
Slowest flit = 183066
Fragmentation average = 0
	minimum = 0
	maximum = 0
Injected packet rate average = 0.615992
	minimum = 0.4529 (at node 1)
	maximum = 0.8056 (at node 28)
Accepted packet rate average = 0.506442
	minimum = 0.4882 (at node 37)
	maximum = 0.522 (at node 56)
Injected flit rate average = 0.615992
	minimum = 0.4529 (at node 1)
	maximum = 0.8056 (at node 28)
Accepted flit rate average= 0.506442
	minimum = 0.4882 (at node 37)
	maximum = 0.522 (at node 56)
Injected packet length average = 1
Accepted packet length average = 1
Total in-flight flits = 70139 (0 measured)
latency change    = 1
throughput change = 1
Average latency for class 0 exceeded 500 cycles. Aborting simulation.
Too many sample periods needed to converge
Simulation unstable, ending ...
Total run time 53.7642
