BEGIN Configuration File: examples/ecc_mesh88_config_1_0.900_link_4
// $Id$

// Copyright (c) 2007-2015, Trustees of The Leland Stanford Junior University
// All rights reserved.
//
// Redistribution and use in source and binary forms, with or without
// modification, are permitted provided that the following conditions are met:
//
// Redistributions of source code must retain the above copyright notice, this
// list of conditions and the following disclaimer.
// Redistributions in binary form must reproduce the above copyright notice,
// this list of conditions and the following disclaimer in the documentation
// and/or other materials provided with the distribution.
//
// THIS SOFTWARE IS PROVIDED BY THE COPYRIGHT HOLDERS AND CONTRIBUTORS "AS IS"
// AND ANY EXPRESS OR IMPLIED WARRANTIES, INCLUDING, BUT NOT LIMITED TO, THE
// IMPLIED WARRANTIES OF MERCHANTABILITY AND FITNESS FOR A PARTICULAR PURPOSE
// ARE DISCLAIMED. IN NO EVENT SHALL THE COPYRIGHT OWNER OR CONTRIBUTORS BE
// LIABLE FOR ANY DIRECT, INDIRECT, INCIDENTAL, SPECIAL, EXEMPLARY, OR
// CONSEQUENTIAL DAMAGES (INCLUDING, BUT NOT LIMITED TO, PROCUREMENT OF
// SUBSTITUTE GOODS OR SERVICES; LOSS OF USE, DATA, OR PROFITS; OR BUSINESS
// INTERRUPTION) HOWEVER CAUSED AND ON ANY THEORY OF LIABILITY, WHETHER IN
// CONTRACT, STRICT LIABILITY, OR TORT (INCLUDING NEGLIGENCE OR OTHERWISE)
// ARISING IN ANY WAY OUT OF THE USE OF THIS SOFTWARE, EVEN IF ADVISED OF THE
// POSSIBILITY OF SUCH DAMAGE.

// Dragonfly
//




vc_buf_size = 256;


wait_for_tail_credit = 0;

//
// Router architecture
//
vc_allocator = separable_input_first; 
sw_allocator = separable_input_first;
alloc_iters  = 1;

credit_delay   = 2;
routing_delay  = 0;
vc_alloc_delay = 1;
sw_alloc_delay = 1;
st_final_delay = 1;

input_speedup     = 1;
output_speedup    = 1;
internal_speedup  = 2.0;


warmup_periods = 3;
sim_count          = 1;

sample_period  = 10000;  


routing_function = dor;
num_vcs     = 2;

priority = none;
traffic       = uniform; 

injection_rate = 0.9;
packet_size = 1;
injection_rate_uses_flits = 1;

topology = mesh;

k  = 8;
n  = 2;

fer = 4;
ecc = link;

watch_out=-;
//watch_file = watch.txt;

ecc = link;

stats_out = examples/ecc_mesh88_config_1_0.900_link_4.m;

END Configuration File: examples/ecc_mesh88_config_1_0.900_link_4
1
Received nack credit for flit 4234
Requeued flit 4234
1
Received nack credit for flit 7317
Requeued flit 7317
1
Received nack credit for flit 8565
Requeued flit 8565
1
1
Received nack credit for flit 9808
Requeued flit 9808
Received nack credit for flit 7700
Requeued flit 7700
5
Received nack credit for flit 5042
Requeued flit 5042
8
5
Received nack credit for flit 8140
Requeued flit 8140
Received nack credit for flit 8541
Requeued flit 8541
1
Received nack credit for flit 14212
Requeued flit 14212
3
Received nack credit for flit 10039
Requeued flit 10039
1
1
Received nack credit for flit 26138
Requeued flit 26138
Received nack credit for flit 19837
Requeued flit 19837
1
Received nack credit for flit 27798
Requeued flit 27798
1
Received nack credit for flit 28813
Requeued flit 28813
5
Received nack credit for flit 18752
Requeued flit 18752
3
Received nack credit for flit 35392
Requeued flit 35392
1
Received nack credit for flit 35277
Requeued flit 35277
1
Received nack credit for flit 45266
Requeued flit 45266
4
Received nack credit for flit 34930
Requeued flit 34930
1
Received nack credit for flit 48368
Requeued flit 48368
3
4
Received nack credit for flit 28759
Requeued flit 28759
1
Received nack credit for flit 41057
Requeued flit 41057
Received nack credit for flit 52442
Requeued flit 52442
2
2
Received nack credit for flit 59106
Requeued flit 59106
Received nack credit for flit 46560
Requeued flit 46560
2
Received nack credit for flit 57655
Requeued flit 57655
1
Received nack credit for flit 50905
Requeued flit 50905
1
Received nack credit for flit 54132
Requeued flit 54132
4
Received nack credit for flit 54145
Requeued flit 54145
9
Received nack credit for flit 23779
Requeued flit 23779
2
Received nack credit for flit 57177
Requeued flit 57177
8
Received nack credit for flit 41035
Requeued flit 41035
3
Received nack credit for flit 61892
Requeued flit 61892
1
Received nack credit for flit 81647
Requeued flit 81647
3
Received nack credit for flit 83159
Requeued flit 83159
2
Received nack credit for flit 54854
Requeued flit 54854
2
Received nack credit for flit 73180
Requeued flit 73180
8
Received nack credit for flit 37694
Requeued flit 37694
9
Received nack credit for flit 42728
Requeued flit 42728
4
Received nack credit for flit 58945
Requeued flit 58945
3
Received nack credit for flit 104011
Requeued flit 104011
4
Received nack credit for flit 111019
Requeued flit 111019
1
Received nack credit for flit 113295
Requeued flit 113295
5
1
Received nack credit for flit 98561
Requeued flit 98561
Received nack credit for flit 118938
Requeued flit 118938
3
Received nack credit for flit 109792
Requeued flit 109792
1
Received nack credit for flit 121671
Requeued flit 121671
3
Received nack credit for flit 99171
Requeued flit 99171
1
Received nack credit for flit 102580
Requeued flit 102580
6
Received nack credit for flit 100244
Requeued flit 100244
5
Received nack credit for flit 84542
Requeued flit 84542
4
Received nack credit for flit 67535
Requeued flit 67535
3
Received nack credit for flit 106421
Requeued flit 106421
1
Received nack credit for flit 140794
Requeued flit 140794
3
Received nack credit for flit 75189
Requeued flit 75189
2
Received nack credit for flit 118303
Requeued flit 118303
3
Received nack credit for flit 140356
Requeued flit 140356
1
Received nack credit for flit 140550
Requeued flit 140550
4
Received nack credit for flit 122602
Requeued flit 122602
1
Received nack credit for flit 136754
Requeued flit 136754
3
Received nack credit for flit 92118
Requeued flit 92118
1
Received nack credit for flit 160764
Requeued flit 160764
2
Received nack credit for flit 92185
Requeued flit 92185
4
Received nack credit for flit 164186
Requeued flit 164186
2
4
Received nack credit for flit 141094
Requeued flit 141094
Received nack credit for flit 73555
Requeued flit 73555
6
Received nack credit for flit 141988
Requeued flit 141988
4
Received nack credit for flit 78764
Requeued flit 78764
1
Received nack credit for flit 153124
Requeued flit 153124
3
Received nack credit for flit 99328
Requeued flit 99328
1
Received nack credit for flit 167712
Requeued flit 167712
3
Received nack credit for flit 89291
Requeued flit 89291
2
Received nack credit for flit 160759
Requeued flit 160759
4
5
Received nack credit for flit 183885
Requeued flit 183885
2
Received nack credit for flit 157906
Requeued flit 157906
Received nack credit for flit 163082
Requeued flit 163082
3
Received nack credit for flit 192468
Requeued flit 192468
1
Received nack credit for flit 167389
Requeued flit 167389
3
Received nack credit for flit 188522
Requeued flit 188522
2
Received nack credit for flit 184668
Requeued flit 184668
1
Received nack credit for flit 164953
Requeued flit 164953
5
Received nack credit for flit 157202
Requeued flit 157202
3
Received nack credit for flit 177177
Requeued flit 177177
5
1
Received nack credit for flit 134236
Requeued flit 134236
Received nack credit for flit 166969
Requeued flit 166969
9
Received nack credit for flit 169849
Requeued flit 169849
3
Received nack credit for flit 165652
Requeued flit 165652
6
Received nack credit for flit 143503
Requeued flit 143503
3
Received nack credit for flit 208648
Requeued flit 208648
1
1
Received nack credit for flit 208417
Requeued flit 208417
Received nack credit for flit 218091
Requeued flit 218091
3
Received nack credit for flit 192041
Requeued flit 192041
5
Received nack credit for flit 203213
Requeued flit 203213
1
Received nack credit for flit 195551
Requeued flit 195551
5
Received nack credit for flit 96016
Requeued flit 96016
4
1
Received nack credit for flit 106099
Requeued flit 106099
Received nack credit for flit 215773
Requeued flit 215773
7
Received nack credit for flit 157880
Requeued flit 157880
5
Received nack credit for flit 112510
Requeued flit 112510
1
Received nack credit for flit 207100
Requeued flit 207100
8
Received nack credit for flit 152871
Requeued flit 152871
2
Received nack credit for flit 204233
Requeued flit 204233
1
Received nack credit for flit 206319
Requeued flit 206319
2
Received nack credit for flit 171926
Requeued flit 171926
3
Received nack credit for flit 234607
Requeued flit 234607
1
Received nack credit for flit 229658
Requeued flit 229658
6
Received nack credit for flit 109074
Requeued flit 109074
5
4
5
Received nack credit for flit 233627
Requeued flit 233627
Received nack credit for flit 166664
Requeued flit 166664
Received nack credit for flit 225865
Requeued flit 225865
3
Received nack credit for flit 160905
Requeued flit 160905
3
Received nack credit for flit 223436
Requeued flit 223436
4
Received nack credit for flit 243440
Requeued flit 243440
1
6
Received nack credit for flit 200456
Requeued flit 200456
Received nack credit for flit 223981
Requeued flit 223981
1
Received nack credit for flit 253241
Requeued flit 253241
1
Received nack credit for flit 241874
Requeued flit 241874
1
Received nack credit for flit 248738
Requeued flit 248738
1
Received nack credit for flit 242676
Requeued flit 242676
1
Received nack credit for flit 236202
Requeued flit 236202
5
Received nack credit for flit 113761
Requeued flit 113761
4
Received nack credit for flit 241301
Requeued flit 241301
2
Received nack credit for flit 211470
Requeued flit 211470
5
Received nack credit for flit 246034
Requeued flit 246034
4
Received nack credit for flit 138148
Requeued flit 138148
2
Received nack credit for flit 239657
Requeued flit 239657
5
Received nack credit for flit 161550
Requeued flit 161550
2
Received nack credit for flit 255396
Requeued flit 255396
1
Received nack credit for flit 268756
Requeued flit 268756
2
Received nack credit for flit 257472
Requeued flit 257472
2
Received nack credit for flit 263170
Requeued flit 263170
6
Received nack credit for flit 115872
Requeued flit 115872
1
Received nack credit for flit 254126
Requeued flit 254126
7
4
Received nack credit for flit 180618
Requeued flit 180618
Received nack credit for flit 250616
Requeued flit 250616
4
5
Received nack credit for flit 249501
Requeued flit 249501
3
Received nack credit for flit 226024
Requeued flit 226024
Received nack credit for flit 265099
Requeued flit 265099
1
Received nack credit for flit 271035
Requeued flit 271035
1
Received nack credit for flit 232155
Requeued flit 232155
14
Received nack credit for flit 126921
Requeued flit 126921
8
Received nack credit for flit 242923
Requeued flit 242923
4
Received nack credit for flit 203234
Requeued flit 203234
1
Received nack credit for flit 275224
Requeued flit 275224
8
Received nack credit for flit 271104
Requeued flit 271104
6
Received nack credit for flit 260555
Requeued flit 260555
2
Received nack credit for flit 268404
Requeued flit 268404
1
2
Received nack credit for flit 276950
Requeued flit 276950
Received nack credit for flit 207424
Requeued flit 207424
7
Received nack credit for flit 143279
Requeued flit 143279
1
Received nack credit for flit 249294
Requeued flit 249294
1
Received nack credit for flit 288331
Requeued flit 288331
5
Received nack credit for flit 292823
Requeued flit 292823
5
Received nack credit for flit 281548
Requeued flit 281548
8
1
Received nack credit for flit 141039
Requeued flit 141039
Received nack credit for flit 288583
Requeued flit 288583
1
Received nack credit for flit 286871
Requeued flit 286871
1
Received nack credit for flit 290265
Requeued flit 290265
2
Received nack credit for flit 278777
Requeued flit 278777
1
Received nack credit for flit 263313
Requeued flit 263313
1
Received nack credit for flit 274122
Requeued flit 274122
2
Received nack credit for flit 259199
Requeued flit 259199
8
Received nack credit for flit 171565
Requeued flit 171565
3
Received nack credit for flit 292439
Requeued flit 292439
3
Received nack credit for flit 302529
Requeued flit 302529
6
5
Received nack credit for flit 289628
Requeued flit 289628
Received nack credit for flit 286266
Requeued flit 286266
6
Received nack credit for flit 151643
Requeued flit 151643
4
Received nack credit for flit 219969
Requeued flit 219969
3
Received nack credit for flit 317820
Requeued flit 317820
4
Received nack credit for flit 189086
Requeued flit 189086
1
Received nack credit for flit 310690
Requeued flit 310690
1
Received nack credit for flit 317929
Requeued flit 317929
3
Received nack credit for flit 298404
Requeued flit 298404
1
Received nack credit for flit 326253
Requeued flit 326253
1
Received nack credit for flit 296860
Requeued flit 296860
9
Received nack credit for flit 300799
Requeued flit 300799
1
Received nack credit for flit 324533
Requeued flit 324533
3
Received nack credit for flit 272649
Requeued flit 272649
6
Received nack credit for flit 290922
Requeued flit 290922
3
Received nack credit for flit 328340
Requeued flit 328340
1
Received nack credit for flit 306400
Requeued flit 306400
6
Received nack credit for flit 319419
Requeued flit 319419
1
Received nack credit for flit 331801
Requeued flit 331801
5
Received nack credit for flit 310271
Requeued flit 310271
1
Received nack credit for flit 329964
Requeued flit 329964
7
Received nack credit for flit 214522
Requeued flit 214522
6
Received nack credit for flit 164837
Requeued flit 164837
3
Received nack credit for flit 323196
Requeued flit 323196
8
Received nack credit for flit 302087
Requeued flit 302087
6
Received nack credit for flit 167421
Requeued flit 167421
1
Received nack credit for flit 338643
Requeued flit 338643
1
Received nack credit for flit 318986
Requeued flit 318986
1
Received nack credit for flit 322344
Requeued flit 322344
1
Received nack credit for flit 352315
Requeued flit 352315
1
Received nack credit for flit 323906
Requeued flit 323906
6
4
Received nack credit for flit 238191
Requeued flit 238191
Received nack credit for flit 233413
Requeued flit 233413
5
Received nack credit for flit 302343
Requeued flit 302343
1
Received nack credit for flit 336132
Requeued flit 336132
4
Received nack credit for flit 199485
Requeued flit 199485
1
Received nack credit for flit 352912
Requeued flit 352912
1
5
Received nack credit for flit 371009
Requeued flit 371009
Received nack credit for flit 311205
Requeued flit 311205
2
Received nack credit for flit 283374
Requeued flit 283374
1
Received nack credit for flit 339766
Requeued flit 339766
1
Received nack credit for flit 368625
Requeued flit 368625
1
Received nack credit for flit 359079
Requeued flit 359079
Class 0:
Packet latency average = 1726.12
	minimum = 5
	maximum = 7018
Network latency average = 1472.13
	minimum = 5
	maximum = 6989
Slowest packet = 165680
Flit latency average = 1472.13
	minimum = 5
	maximum = 6989
Slowest flit = 166686
Fragmentation average = 0
	minimum = 0
	maximum = 0
Injected packet rate average = 0.62053
	minimum = 0.4152 (at node 25)
	maximum = 0.8992 (at node 20)
Accepted packet rate average = 0.502267
	minimum = 0.4772 (at node 21)
	maximum = 0.5168 (at node 56)
Injected flit rate average = 0.62053
	minimum = 0.4152 (at node 25)
	maximum = 0.8992 (at node 20)
Accepted flit rate average= 0.502267
	minimum = 0.4772 (at node 21)
	maximum = 0.5168 (at node 56)
Injected packet length average = 1
Accepted packet length average = 1
Total in-flight flits = 75716 (0 measured)
latency change    = 1
throughput change = 1
Average latency for class 0 exceeded 500 cycles. Aborting simulation.
Too many sample periods needed to converge
Simulation unstable, ending ...
Total run time 55.0585
