BEGIN Configuration File: examples/ecc_mesh88_config_1_0.800_packet_5
// $Id$

// Copyright (c) 2007-2015, Trustees of The Leland Stanford Junior University
// All rights reserved.
//
// Redistribution and use in source and binary forms, with or without
// modification, are permitted provided that the following conditions are met:
//
// Redistributions of source code must retain the above copyright notice, this
// list of conditions and the following disclaimer.
// Redistributions in binary form must reproduce the above copyright notice,
// this list of conditions and the following disclaimer in the documentation
// and/or other materials provided with the distribution.
//
// THIS SOFTWARE IS PROVIDED BY THE COPYRIGHT HOLDERS AND CONTRIBUTORS "AS IS"
// AND ANY EXPRESS OR IMPLIED WARRANTIES, INCLUDING, BUT NOT LIMITED TO, THE
// IMPLIED WARRANTIES OF MERCHANTABILITY AND FITNESS FOR A PARTICULAR PURPOSE
// ARE DISCLAIMED. IN NO EVENT SHALL THE COPYRIGHT OWNER OR CONTRIBUTORS BE
// LIABLE FOR ANY DIRECT, INDIRECT, INCIDENTAL, SPECIAL, EXEMPLARY, OR
// CONSEQUENTIAL DAMAGES (INCLUDING, BUT NOT LIMITED TO, PROCUREMENT OF
// SUBSTITUTE GOODS OR SERVICES; LOSS OF USE, DATA, OR PROFITS; OR BUSINESS
// INTERRUPTION) HOWEVER CAUSED AND ON ANY THEORY OF LIABILITY, WHETHER IN
// CONTRACT, STRICT LIABILITY, OR TORT (INCLUDING NEGLIGENCE OR OTHERWISE)
// ARISING IN ANY WAY OUT OF THE USE OF THIS SOFTWARE, EVEN IF ADVISED OF THE
// POSSIBILITY OF SUCH DAMAGE.

// Dragonfly
//




vc_buf_size = 256;


wait_for_tail_credit = 0;

//
// Router architecture
//
vc_allocator = separable_input_first; 
sw_allocator = separable_input_first;
alloc_iters  = 1;

credit_delay   = 2;
routing_delay  = 0;
vc_alloc_delay = 1;
sw_alloc_delay = 1;
st_final_delay = 1;

input_speedup     = 1;
output_speedup    = 1;
internal_speedup  = 2.0;


warmup_periods = 3;
sim_count          = 1;

sample_period  = 10000;  


routing_function = dor;
num_vcs     = 2;

priority = none;
traffic       = uniform; 

injection_rate = 0.8;
packet_size = 1;
injection_rate_uses_flits = 1;

topology = mesh;

k  = 8;
n  = 2;

fer = 5;
ecc = link;

watch_out=-;
//watch_file = watch.txt;

ecc = packet;

stats_out = examples/ecc_mesh88_config_1_0.800_packet_5.m;

END Configuration File: examples/ecc_mesh88_config_1_0.800_packet_5
Additional hops: 6
Set signal latency stall time: 12
Reenqueueing errored packet 20889 at time 447
Additional hops: 13
Set signal latency stall time: 14
Reenqueueing errored packet 33654 at time 916
Additional hops: 24
Set signal latency stall time: 22
Reenqueueing errored packet 38340 at time 1252
Additional hops: 28
Set signal latency stall time: 8
Reenqueueing errored packet 69539 at time 1385
Additional hops: 33
Set signal latency stall time: 10
Reenqueueing errored packet 51209 at time 1880
Additional hops: 42
Set signal latency stall time: 18
Reenqueueing errored packet 124494 at time 3257
Additional hops: 49
Set signal latency stall time: 14
Reenqueueing errored packet 159408 at time 3807
Additional hops: 56
Set signal latency stall time: 14
Reenqueueing errored packet 150338 at time 4008
Additional hops: 60
Set signal latency stall time: 8
Reenqueueing errored packet 194528 at time 4177
Additional hops: 66
Set signal latency stall time: 12
Reenqueueing errored packet 176077 at time 4349
Additional hops: 70
Set signal latency stall time: 8
Additional hops: 81
Set signal latency stall time: 22
Additional hops: 85
Set signal latency stall time: 8
Additional hops: 92
Set signal latency stall time: 14
Additional hops: 99
Set signal latency stall time: 14
Reenqueueing errored packet 166299 at time 5243
Additional hops: 106
Set signal latency stall time: 14
Additional hops: 112
Set signal latency stall time: 12
Reenqueueing errored packet 241290 at time 6017
Additional hops: 116
Set signal latency stall time: 8
Additional hops: 124
Set signal latency stall time: 16
Reenqueueing errored packet 150062 at time 6316
Additional hops: 134
Set signal latency stall time: 20
Additional hops: 142
Set signal latency stall time: 16
Additional hops: 144
Set signal latency stall time: 4
Reenqueueing errored packet 340970 at time 8371
Additional hops: 153
Set signal latency stall time: 18
Reenqueueing errored packet 176257 at time 8537
Additional hops: 163
Set signal latency stall time: 20
Reenqueueing errored packet 335108 at time 9125
Additional hops: 168
Set signal latency stall time: 10
Reenqueueing errored packet 344367 at time 9392
Class 0:
Packet latency average = 1419.54
	minimum = 5
	maximum = 6248
Network latency average = 1299.68
	minimum = 5
	maximum = 6179
Slowest packet = 186302
Flit latency average = 1299.68
	minimum = 5
	maximum = 6179
Slowest flit = 187094
Fragmentation average = 0
	minimum = 0
	maximum = 0
Injected packet rate average = 0.614625
	minimum = 0.4441 (at node 25)
	maximum = 0.8063 (at node 36)
Accepted packet rate average = 0.505348
	minimum = 0.487 (at node 21)
	maximum = 0.5193 (at node 39)
Injected flit rate average = 0.614625
	minimum = 0.4441 (at node 25)
	maximum = 0.8063 (at node 36)
Accepted flit rate average= 0.505348
	minimum = 0.487 (at node 21)
	maximum = 0.5193 (at node 39)
Injected packet length average = 1
Accepted packet length average = 1
Total in-flight flits = 69973 (0 measured)
latency change    = 1
throughput change = 1
Average latency for class 0 exceeded 500 cycles. Aborting simulation.
Too many sample periods needed to converge
Simulation unstable, ending ...
Total run time 61.6168
