BEGIN Configuration File: examples/ecc_mesh88_config_1_0.700_packet_3
// $Id$

// Copyright (c) 2007-2015, Trustees of The Leland Stanford Junior University
// All rights reserved.
//
// Redistribution and use in source and binary forms, with or without
// modification, are permitted provided that the following conditions are met:
//
// Redistributions of source code must retain the above copyright notice, this
// list of conditions and the following disclaimer.
// Redistributions in binary form must reproduce the above copyright notice,
// this list of conditions and the following disclaimer in the documentation
// and/or other materials provided with the distribution.
//
// THIS SOFTWARE IS PROVIDED BY THE COPYRIGHT HOLDERS AND CONTRIBUTORS "AS IS"
// AND ANY EXPRESS OR IMPLIED WARRANTIES, INCLUDING, BUT NOT LIMITED TO, THE
// IMPLIED WARRANTIES OF MERCHANTABILITY AND FITNESS FOR A PARTICULAR PURPOSE
// ARE DISCLAIMED. IN NO EVENT SHALL THE COPYRIGHT OWNER OR CONTRIBUTORS BE
// LIABLE FOR ANY DIRECT, INDIRECT, INCIDENTAL, SPECIAL, EXEMPLARY, OR
// CONSEQUENTIAL DAMAGES (INCLUDING, BUT NOT LIMITED TO, PROCUREMENT OF
// SUBSTITUTE GOODS OR SERVICES; LOSS OF USE, DATA, OR PROFITS; OR BUSINESS
// INTERRUPTION) HOWEVER CAUSED AND ON ANY THEORY OF LIABILITY, WHETHER IN
// CONTRACT, STRICT LIABILITY, OR TORT (INCLUDING NEGLIGENCE OR OTHERWISE)
// ARISING IN ANY WAY OUT OF THE USE OF THIS SOFTWARE, EVEN IF ADVISED OF THE
// POSSIBILITY OF SUCH DAMAGE.

// Dragonfly
//




vc_buf_size = 256;


wait_for_tail_credit = 0;

//
// Router architecture
//
vc_allocator = separable_input_first; 
sw_allocator = separable_input_first;
alloc_iters  = 1;

credit_delay   = 2;
routing_delay  = 0;
vc_alloc_delay = 1;
sw_alloc_delay = 1;
st_final_delay = 1;

input_speedup     = 1;
output_speedup    = 1;
internal_speedup  = 2.0;


warmup_periods = 3;
sim_count          = 1;

sample_period  = 10000;  


routing_function = dor;
num_vcs     = 2;

priority = none;
traffic       = uniform; 

injection_rate = 0.7;
packet_size = 1;
injection_rate_uses_flits = 1;

topology = mesh;

k  = 8;
n  = 2;

fer = 3;
ecc = link;

watch_out=-;
//watch_file = watch.txt;

ecc = packet;

stats_out = examples/ecc_mesh88_config_1_0.700_packet_3.m;

END Configuration File: examples/ecc_mesh88_config_1_0.700_packet_3
Additional hops: 4
Set signal latency stall time: 8
Additional hops: 9
Set signal latency stall time: 10
Additional hops: 14
Set signal latency stall time: 10
Additional hops: 21
Set signal latency stall time: 14
Additional hops: 29
Set signal latency stall time: 16
Reenqueueing errored packet 643 at time 39
Reenqueueing errored packet 632 at time 45
Reenqueueing errored packet 600 at time 47
Additional hops: 36
Set signal latency stall time: 14
Reenqueueing errored packet 257 at time 52
Reenqueueing errored packet 389 at time 55
Additional hops: 44
Set signal latency stall time: 16
Reenqueueing errored packet 576 at time 62
Additional hops: 53
Set signal latency stall time: 18
Additional hops: 57
Set signal latency stall time: 8
Reenqueueing errored packet 649 at time 72
Additional hops: 69
Set signal latency stall time: 24
Additional hops: 78
Set signal latency stall time: 18
Reenqueueing errored packet 2217 at time 77
Additional hops: 84
Set signal latency stall time: 12
Reenqueueing errored packet 877 at time 83
Additional hops: 87
Set signal latency stall time: 6
Reenqueueing errored packet 2644 at time 91
Reenqueueing errored packet 1738 at time 91
Reenqueueing errored packet 979 at time 94
Additional hops: 95
Set signal latency stall time: 16
Reenqueueing errored packet 997 at time 99
Additional hops: 102
Set signal latency stall time: 14
Additional hops: 108
Set signal latency stall time: 12
Additional hops: 115
Set signal latency stall time: 14
Additional hops: 120
Set signal latency stall time: 10
Reenqueueing errored packet 2088 at time 114
Reenqueueing errored packet 2546 at time 115
Additional hops: 130
Set signal latency stall time: 20
Reenqueueing errored packet 3375 at time 120
Reenqueueing errored packet 3539 at time 124
Reenqueueing errored packet 2500 at time 127
Additional hops: 137
Set signal latency stall time: 14
Additional hops: 146
Set signal latency stall time: 18
Additional hops: 154
Set signal latency stall time: 16
Additional hops: 161
Set signal latency stall time: 14
Additional hops: 169
Set signal latency stall time: 16
Reenqueueing errored packet 2125 at time 137
Additional hops: 178
Set signal latency stall time: 18
Additional hops: 183
Set signal latency stall time: 10
Additional hops: 186
Set signal latency stall time: 6
Additional hops: 190
Set signal latency stall time: 8
Reenqueueing errored packet 4201 at time 147
Reenqueueing errored packet 3655 at time 148
Reenqueueing errored packet 5511 at time 150
Reenqueueing errored packet 4104 at time 150
Reenqueueing errored packet 4177 at time 151
Reenqueueing errored packet 3113 at time 151
Reenqueueing errored packet 2917 at time 153
Reenqueueing errored packet 5123 at time 154
Reenqueueing errored packet 2920 at time 159
Additional hops: 196
Set signal latency stall time: 12
Additional hops: 199
Set signal latency stall time: 6
Additional hops: 206
Set signal latency stall time: 14
Additional hops: 208
Set signal latency stall time: 4
Additional hops: 214
Set signal latency stall time: 12
Reenqueueing errored packet 5329 at time 170
Additional hops: 217
Set signal latency stall time: 6
Reenqueueing errored packet 6590 at time 173
Reenqueueing errored packet 5110 at time 176
Reenqueueing errored packet 6581 at time 179
Additional hops: 222
Set signal latency stall time: 10
Reenqueueing errored packet 4926 at time 181
Additional hops: 229
Set signal latency stall time: 14
Reenqueueing errored packet 5098 at time 182
Additional hops: 235
Set signal latency stall time: 12
Additional hops: 238
Set signal latency stall time: 6
Reenqueueing errored packet 4913 at time 190
Reenqueueing errored packet 7653 at time 195
Reenqueueing errored packet 4525 at time 196
Reenqueueing errored packet 5674 at time 197
Additional hops: 246
Set signal latency stall time: 16
Reenqueueing errored packet 5537 at time 229
Additional hops: 253
Set signal latency stall time: 14
Additional hops: 257
Set signal latency stall time: 8
Additional hops: 262
Set signal latency stall time: 10
Reenqueueing errored packet 7118 at time 249
Additional hops: 268
Set signal latency stall time: 12
Reenqueueing errored packet 9710 at time 251
Additional hops: 272
Set signal latency stall time: 8
Reenqueueing errored packet 6981 at time 253
Additional hops: 280
Set signal latency stall time: 16
Reenqueueing errored packet 10321 at time 260
Reenqueueing errored packet 7339 at time 263
Additional hops: 288
Set signal latency stall time: 16
Additional hops: 297
Set signal latency stall time: 18
Additional hops: 306
Set signal latency stall time: 18
Additional hops: 309
Set signal latency stall time: 6
Reenqueueing errored packet 5399 at time 274
Reenqueueing errored packet 10581 at time 280
Additional hops: 312
Set signal latency stall time: 6
Additional hops: 317
Set signal latency stall time: 10
Reenqueueing errored packet 5394 at time 281
Reenqueueing errored packet 7056 at time 283
Reenqueueing errored packet 5566 at time 285
Reenqueueing errored packet 10258 at time 287
Reenqueueing errored packet 9677 at time 291
Additional hops: 325
Set signal latency stall time: 16
Additional hops: 334
Set signal latency stall time: 18
Additional hops: 337
Set signal latency stall time: 6
Additional hops: 339
Set signal latency stall time: 4
Reenqueueing errored packet 10822 at time 312
Reenqueueing errored packet 10573 at time 313
Reenqueueing errored packet 7522 at time 318
Additional hops: 346
Set signal latency stall time: 14
Reenqueueing errored packet 8381 at time 322
Additional hops: 360
Set signal latency stall time: 28
Additional hops: 368
Set signal latency stall time: 16
Reenqueueing errored packet 7618 at time 335
Additional hops: 374
Set signal latency stall time: 12
Additional hops: 377
Set signal latency stall time: 6
Reenqueueing errored packet 10832 at time 349
Additional hops: 385
Set signal latency stall time: 16
Additional hops: 394
Set signal latency stall time: 18
Reenqueueing errored packet 14378 at time 350
Reenqueueing errored packet 9566 at time 354
Additional hops: 404
Set signal latency stall time: 20
Reenqueueing errored packet 5447 at time 359
Additional hops: 407
Set signal latency stall time: 6
Additional hops: 413
Set signal latency stall time: 12
Reenqueueing errored packet 7455 at time 366
Reenqueueing errored packet 13934 at time 367
Reenqueueing errored packet 8637 at time 368
Additional hops: 421
Set signal latency stall time: 16
Additional hops: 429
Set signal latency stall time: 16
Additional hops: 435
Set signal latency stall time: 12
Reenqueueing errored packet 10448 at time 378
Reenqueueing errored packet 8946 at time 379
Additional hops: 441
Set signal latency stall time: 12
Additional hops: 449
Set signal latency stall time: 16
Reenqueueing errored packet 14378 at time 385
Reenqueueing errored packet 9960 at time 386
Reenqueueing errored packet 11562 at time 387
Additional hops: 455
Set signal latency stall time: 12
Additional hops: 465
Set signal latency stall time: 20
Reenqueueing errored packet 14312 at time 394
Additional hops: 471
Set signal latency stall time: 12
Additional hops: 480
Set signal latency stall time: 18
Reenqueueing errored packet 12636 at time 399
Reenqueueing errored packet 13814 at time 405
Reenqueueing errored packet 10605 at time 408
Reenqueueing errored packet 12968 at time 414
Reenqueueing errored packet 9705 at time 416
Additional hops: 490
Set signal latency stall time: 20
Additional hops: 493
Set signal latency stall time: 6
Additional hops: 500
Set signal latency stall time: 14
Reenqueueing errored packet 18106 at time 429
Additional hops: 510
Set signal latency stall time: 20
Additional hops: 515
Set signal latency stall time: 10
Additional hops: 526
Set signal latency stall time: 22
Reenqueueing errored packet 8207 at time 438
Additional hops: 532
Set signal latency stall time: 12
Reenqueueing errored packet 12106 at time 443
Additional hops: 537
Set signal latency stall time: 10
Reenqueueing errored packet 17265 at time 446
Additional hops: 549
Set signal latency stall time: 24
Additional hops: 552
Set signal latency stall time: 6
Additional hops: 561
Set signal latency stall time: 18
Additional hops: 566
Set signal latency stall time: 10
Reenqueueing errored packet 12865 at time 454
Reenqueueing errored packet 18543 at time 455
Reenqueueing errored packet 10492 at time 455
Reenqueueing errored packet 16988 at time 456
Reenqueueing errored packet 10708 at time 458
Additional hops: 573
Set signal latency stall time: 14
Additional hops: 581
Set signal latency stall time: 16
Reenqueueing errored packet 16140 at time 462
Additional hops: 583
Set signal latency stall time: 4
Additional hops: 590
Set signal latency stall time: 14
Reenqueueing errored packet 14380 at time 468
Additional hops: 593
Set signal latency stall time: 6
Reenqueueing errored packet 20520 at time 471
Reenqueueing errored packet 13677 at time 474
Reenqueueing errored packet 9065 at time 474
Reenqueueing errored packet 20514 at time 475
Additional hops: 602
Set signal latency stall time: 18
Reenqueueing errored packet 11718 at time 477
Additional hops: 611
Set signal latency stall time: 18
Reenqueueing errored packet 11544 at time 482
Additional hops: 620
Set signal latency stall time: 18
Additional hops: 624
Set signal latency stall time: 8
Additional hops: 630
Set signal latency stall time: 12
Additional hops: 640
Set signal latency stall time: 20
Reenqueueing errored packet 12278 at time 494
Additional hops: 644
Set signal latency stall time: 8
Reenqueueing errored packet 13260 at time 496
Additional hops: 653
Set signal latency stall time: 18
Reenqueueing errored packet 18791 at time 500
Reenqueueing errored packet 17710 at time 503
Reenqueueing errored packet 12345 at time 505
Reenqueueing errored packet 11322 at time 509
Additional hops: 660
Set signal latency stall time: 14
Reenqueueing errored packet 11260 at time 513
Additional hops: 661
Set signal latency stall time: 2
Additional hops: 665
Set signal latency stall time: 8
Reenqueueing errored packet 22794 at time 517
Reenqueueing errored packet 13618 at time 517
Additional hops: 673
Set signal latency stall time: 16
Additional hops: 677
Set signal latency stall time: 8
Reenqueueing errored packet 20770 at time 525
Reenqueueing errored packet 14517 at time 527
Additional hops: 685
Set signal latency stall time: 16
Additional hops: 693
Set signal latency stall time: 16
Reenqueueing errored packet 15109 at time 530
Additional hops: 698
Set signal latency stall time: 10
Additional hops: 706
Set signal latency stall time: 16
Additional hops: 716
Set signal latency stall time: 20
Additional hops: 718
Set signal latency stall time: 4
Additional hops: 721
Set signal latency stall time: 6
Reenqueueing errored packet 14937 at time 537
Additional hops: 725
Set signal latency stall time: 8
Reenqueueing errored packet 20707 at time 538
Additional hops: 738
Set signal latency stall time: 26
Additional hops: 746
Set signal latency stall time: 16
Reenqueueing errored packet 22082 at time 542
Reenqueueing errored packet 18095 at time 542
Additional hops: 754
Set signal latency stall time: 16
Reenqueueing errored packet 16713 at time 546
Reenqueueing errored packet 13638 at time 546
Reenqueueing errored packet 12723 at time 546
Reenqueueing errored packet 14707 at time 548
Additional hops: 759
Set signal latency stall time: 10
Reenqueueing errored packet 15322 at time 553
Reenqueueing errored packet 18130 at time 558
Reenqueueing errored packet 16190 at time 559
Reenqueueing errored packet 17655 at time 563
Reenqueueing errored packet 11262 at time 567
Additional hops: 766
Set signal latency stall time: 14
Additional hops: 771
Set signal latency stall time: 10
Additional hops: 775
Set signal latency stall time: 8
Additional hops: 781
Set signal latency stall time: 12
Reenqueueing errored packet 16883 at time 588
Reenqueueing errored packet 19766 at time 589
Reenqueueing errored packet 25574 at time 593
Additional hops: 788
Set signal latency stall time: 14
Additional hops: 792
Set signal latency stall time: 8
Reenqueueing errored packet 19828 at time 600
Reenqueueing errored packet 17199 at time 603
Reenqueueing errored packet 15045 at time 608
Additional hops: 798
Set signal latency stall time: 12
Additional hops: 808
Set signal latency stall time: 20
Additional hops: 815
Set signal latency stall time: 14
Additional hops: 819
Set signal latency stall time: 8
Reenqueueing errored packet 22885 at time 634
Reenqueueing errored packet 26997 at time 636
Reenqueueing errored packet 22546 at time 639
Additional hops: 824
Set signal latency stall time: 10
Additional hops: 831
Set signal latency stall time: 14
Additional hops: 835
Set signal latency stall time: 8
Additional hops: 838
Set signal latency stall time: 6
Reenqueueing errored packet 14586 at time 645
Reenqueueing errored packet 27381 at time 649
Reenqueueing errored packet 27180 at time 651
Reenqueueing errored packet 19564 at time 651
Additional hops: 847
Set signal latency stall time: 18
Reenqueueing errored packet 17203 at time 657
Additional hops: 851
Set signal latency stall time: 8
Reenqueueing errored packet 15993 at time 671
Additional hops: 855
Set signal latency stall time: 8
Reenqueueing errored packet 27898 at time 674
Additional hops: 859
Set signal latency stall time: 8
Additional hops: 863
Set signal latency stall time: 8
Additional hops: 865
Set signal latency stall time: 4
Reenqueueing errored packet 29374 at time 682
Reenqueueing errored packet 29919 at time 684
Reenqueueing errored packet 29525 at time 684
Reenqueueing errored packet 25888 at time 685
Additional hops: 875
Set signal latency stall time: 20
Additional hops: 883
Set signal latency stall time: 16
Additional hops: 892
Set signal latency stall time: 18
Additional hops: 901
Set signal latency stall time: 18
Reenqueueing errored packet 22297 at time 709
Additional hops: 903
Set signal latency stall time: 4
Additional hops: 914
Set signal latency stall time: 22
Reenqueueing errored packet 21593 at time 712
Reenqueueing errored packet 31344 at time 714
Reenqueueing errored packet 20068 at time 716
Additional hops: 923
Set signal latency stall time: 18
Additional hops: 929
Set signal latency stall time: 12
Reenqueueing errored packet 21278 at time 727
Additional hops: 932
Set signal latency stall time: 6
Additional hops: 939
Set signal latency stall time: 14
Reenqueueing errored packet 20637 at time 733
Reenqueueing errored packet 32131 at time 735
Additional hops: 945
Set signal latency stall time: 12
Reenqueueing errored packet 21876 at time 738
Additional hops: 949
Set signal latency stall time: 8
Reenqueueing errored packet 17911 at time 740
Additional hops: 956
Set signal latency stall time: 14
Additional hops: 962
Set signal latency stall time: 12
Reenqueueing errored packet 23066 at time 743
Additional hops: 967
Set signal latency stall time: 10
Reenqueueing errored packet 20324 at time 747
Additional hops: 975
Set signal latency stall time: 16
Reenqueueing errored packet 21082 at time 748
Additional hops: 984
Set signal latency stall time: 18
Reenqueueing errored packet 31315 at time 755
Reenqueueing errored packet 20948 at time 755
Reenqueueing errored packet 19759 at time 755
Additional hops: 994
Set signal latency stall time: 20
Additional hops: 1005
Set signal latency stall time: 22
Additional hops: 1013
Set signal latency stall time: 16
Additional hops: 1017
Set signal latency stall time: 8
Additional hops: 1024
Set signal latency stall time: 14
Reenqueueing errored packet 20821 at time 764
Additional hops: 1032
Set signal latency stall time: 16
Reenqueueing errored packet 20521 at time 767
Additional hops: 1042
Set signal latency stall time: 20
Reenqueueing errored packet 22242 at time 770
Additional hops: 1049
Set signal latency stall time: 14
Reenqueueing errored packet 17316 at time 776
Additional hops: 1058
Set signal latency stall time: 18
Reenqueueing errored packet 21281 at time 777
Reenqueueing errored packet 24289 at time 777
Additional hops: 1067
Set signal latency stall time: 18
Additional hops: 1076
Set signal latency stall time: 18
Additional hops: 1087
Set signal latency stall time: 22
Reenqueueing errored packet 20092 at time 782
Reenqueueing errored packet 17642 at time 782
Additional hops: 1095
Set signal latency stall time: 16
Reenqueueing errored packet 23579 at time 786
Additional hops: 1097
Set signal latency stall time: 4
Reenqueueing errored packet 21643 at time 788
Reenqueueing errored packet 30027 at time 792
Reenqueueing errored packet 22996 at time 795
Reenqueueing errored packet 17992 at time 799
Additional hops: 1105
Set signal latency stall time: 16
Reenqueueing errored packet 27570 at time 800
Reenqueueing errored packet 21126 at time 801
Reenqueueing errored packet 18997 at time 804
Additional hops: 1116
Set signal latency stall time: 22
Additional hops: 1121
Set signal latency stall time: 10
Additional hops: 1125
Set signal latency stall time: 8
Reenqueueing errored packet 21839 at time 816
Reenqueueing errored packet 25812 at time 818
Additional hops: 1128
Set signal latency stall time: 6
Additional hops: 1135
Set signal latency stall time: 14
Reenqueueing errored packet 35884 at time 824
Reenqueueing errored packet 29836 at time 825
Additional hops: 1140
Set signal latency stall time: 10
Reenqueueing errored packet 17472 at time 827
Additional hops: 1147
Set signal latency stall time: 14
Additional hops: 1151
Set signal latency stall time: 8
Reenqueueing errored packet 24277 at time 835
Reenqueueing errored packet 22580 at time 837
Additional hops: 1156
Set signal latency stall time: 10
Reenqueueing errored packet 29276 at time 842
Reenqueueing errored packet 22492 at time 842
Additional hops: 1166
Set signal latency stall time: 20
Reenqueueing errored packet 34177 at time 849
Additional hops: 1178
Set signal latency stall time: 24
Additional hops: 1184
Set signal latency stall time: 12
Additional hops: 1193
Set signal latency stall time: 18
Reenqueueing errored packet 22385 at time 866
Additional hops: 1198
Set signal latency stall time: 10
Additional hops: 1212
Set signal latency stall time: 28
Reenqueueing errored packet 25768 at time 871
Additional hops: 1220
Set signal latency stall time: 16
Additional hops: 1225
Set signal latency stall time: 10
Reenqueueing errored packet 31708 at time 878
Reenqueueing errored packet 24237 at time 878
Additional hops: 1234
Set signal latency stall time: 18
Reenqueueing errored packet 25776 at time 881
Reenqueueing errored packet 32795 at time 886
Reenqueueing errored packet 26168 at time 888
Additional hops: 1242
Set signal latency stall time: 16
Reenqueueing errored packet 24112 at time 898
Additional hops: 1251
Set signal latency stall time: 18
Additional hops: 1256
Set signal latency stall time: 10
Additional hops: 1261
Set signal latency stall time: 10
Reenqueueing errored packet 25173 at time 906
Additional hops: 1267
Set signal latency stall time: 12
Additional hops: 1273
Set signal latency stall time: 12
Reenqueueing errored packet 24978 at time 915
Reenqueueing errored packet 27635 at time 916
Reenqueueing errored packet 26968 at time 919
Additional hops: 1281
Set signal latency stall time: 16
Reenqueueing errored packet 29698 at time 925
Reenqueueing errored packet 24595 at time 927
Additional hops: 1290
Set signal latency stall time: 18
Additional hops: 1296
Set signal latency stall time: 12
Additional hops: 1308
Set signal latency stall time: 24
Additional hops: 1314
Set signal latency stall time: 12
Reenqueueing errored packet 21327 at time 941
Reenqueueing errored packet 31448 at time 942
Additional hops: 1322
Set signal latency stall time: 16
Reenqueueing errored packet 29411 at time 947
Additional hops: 1324
Set signal latency stall time: 4
Additional hops: 1330
Set signal latency stall time: 12
Reenqueueing errored packet 30347 at time 952
Reenqueueing errored packet 42063 at time 953
Reenqueueing errored packet 21357 at time 954
Additional hops: 1337
Set signal latency stall time: 14
Reenqueueing errored packet 29848 at time 960
Reenqueueing errored packet 31671 at time 963
Additional hops: 1343
Set signal latency stall time: 12
Reenqueueing errored packet 23447 at time 969
Reenqueueing errored packet 33050 at time 976
Additional hops: 1350
Set signal latency stall time: 14
Additional hops: 1360
Set signal latency stall time: 20
Additional hops: 1378
Set signal latency stall time: 36
Additional hops: 1383
Set signal latency stall time: 10
Additional hops: 1391
Set signal latency stall time: 16
Reenqueueing errored packet 33257 at time 992
Additional hops: 1395
Set signal latency stall time: 8
Reenqueueing errored packet 38809 at time 996
Reenqueueing errored packet 22977 at time 1002
Additional hops: 1401
Set signal latency stall time: 12
Reenqueueing errored packet 33479 at time 1004
Reenqueueing errored packet 26811 at time 1006
Additional hops: 1407
Set signal latency stall time: 12
Additional hops: 1411
Set signal latency stall time: 8
Reenqueueing errored packet 27045 at time 1015
Reenqueueing errored packet 33278 at time 1017
Reenqueueing errored packet 32677 at time 1019
Reenqueueing errored packet 27570 at time 1022
Additional hops: 1417
Set signal latency stall time: 12
Additional hops: 1425
Set signal latency stall time: 16
Additional hops: 1437
Set signal latency stall time: 24
Additional hops: 1439
Set signal latency stall time: 4
Reenqueueing errored packet 28645 at time 1040
Additional hops: 1448
Set signal latency stall time: 18
Reenqueueing errored packet 46046 at time 1042
Reenqueueing errored packet 30248 at time 1045
Additional hops: 1451
Set signal latency stall time: 6
Additional hops: 1457
Set signal latency stall time: 12
Additional hops: 1462
Set signal latency stall time: 10
Additional hops: 1467
Set signal latency stall time: 10
Reenqueueing errored packet 23057 at time 1054
Additional hops: 1471
Set signal latency stall time: 8
Reenqueueing errored packet 46427 at time 1055
Reenqueueing errored packet 28541 at time 1059
Reenqueueing errored packet 38375 at time 1062
Reenqueueing errored packet 35221 at time 1063
Reenqueueing errored packet 29406 at time 1063
Additional hops: 1480
Set signal latency stall time: 18
Reenqueueing errored packet 30709 at time 1064
Additional hops: 1487
Set signal latency stall time: 14
Additional hops: 1494
Set signal latency stall time: 14
Additional hops: 1498
Set signal latency stall time: 8
Reenqueueing errored packet 42597 at time 1080
Reenqueueing errored packet 33161 at time 1081
Reenqueueing errored packet 23808 at time 1082
Additional hops: 1503
Set signal latency stall time: 10
Additional hops: 1507
Set signal latency stall time: 8
Reenqueueing errored packet 35562 at time 1085
Additional hops: 1516
Set signal latency stall time: 18
Reenqueueing errored packet 32190 at time 1093
Reenqueueing errored packet 40490 at time 1095
Additional hops: 1523
Set signal latency stall time: 14
Reenqueueing errored packet 24381 at time 1107
Additional hops: 1532
Set signal latency stall time: 18
Reenqueueing errored packet 33581 at time 1121
Additional hops: 1535
Set signal latency stall time: 6
Reenqueueing errored packet 48489 at time 1128
Reenqueueing errored packet 29829 at time 1133
Additional hops: 1543
Set signal latency stall time: 16
Additional hops: 1553
Set signal latency stall time: 20
Additional hops: 1558
Set signal latency stall time: 10
Additional hops: 1572
Set signal latency stall time: 28
Additional hops: 1579
Set signal latency stall time: 14
Additional hops: 1581
Set signal latency stall time: 4
Additional hops: 1584
Set signal latency stall time: 6
Reenqueueing errored packet 50788 at time 1147
Reenqueueing errored packet 34515 at time 1148
Reenqueueing errored packet 44085 at time 1151
Reenqueueing errored packet 38251 at time 1152
Additional hops: 1586
Set signal latency stall time: 4
Reenqueueing errored packet 36488 at time 1155
Reenqueueing errored packet 36075 at time 1157
Additional hops: 1591
Set signal latency stall time: 10
Reenqueueing errored packet 51282 at time 1159
Additional hops: 1599
Set signal latency stall time: 16
Additional hops: 1608
Set signal latency stall time: 18
Reenqueueing errored packet 44078 at time 1168
Reenqueueing errored packet 23790 at time 1168
Reenqueueing errored packet 28792 at time 1176
Additional hops: 1611
Set signal latency stall time: 6
Additional hops: 1617
Set signal latency stall time: 12
Additional hops: 1623
Set signal latency stall time: 12
Additional hops: 1631
Set signal latency stall time: 16
Reenqueueing errored packet 30388 at time 1184
Reenqueueing errored packet 51619 at time 1186
Additional hops: 1635
Set signal latency stall time: 8
Additional hops: 1644
Set signal latency stall time: 18
Reenqueueing errored packet 44511 at time 1193
Reenqueueing errored packet 43826 at time 1195
Reenqueueing errored packet 50213 at time 1196
Reenqueueing errored packet 35159 at time 1199
Additional hops: 1648
Set signal latency stall time: 8
Additional hops: 1653
Set signal latency stall time: 10
Additional hops: 1662
Set signal latency stall time: 18
Reenqueueing errored packet 28917 at time 1207
Reenqueueing errored packet 50690 at time 1209
Additional hops: 1670
Set signal latency stall time: 16
Additional hops: 1678
Set signal latency stall time: 16
Additional hops: 1690
Set signal latency stall time: 24
Additional hops: 1700
Set signal latency stall time: 20
Reenqueueing errored packet 52676 at time 1212
Additional hops: 1702
Set signal latency stall time: 4
Additional hops: 1706
Set signal latency stall time: 8
Reenqueueing errored packet 42632 at time 1221
Reenqueueing errored packet 34933 at time 1221
Reenqueueing errored packet 42317 at time 1226
Reenqueueing errored packet 42045 at time 1226
Additional hops: 1715
Set signal latency stall time: 18
Reenqueueing errored packet 54015 at time 1228
Reenqueueing errored packet 29566 at time 1231
Reenqueueing errored packet 27263 at time 1235
Additional hops: 1724
Set signal latency stall time: 18
Additional hops: 1730
Set signal latency stall time: 12
Reenqueueing errored packet 35995 at time 1245
Reenqueueing errored packet 41371 at time 1249
Reenqueueing errored packet 33743 at time 1254
Additional hops: 1734
Set signal latency stall time: 8
Additional hops: 1743
Set signal latency stall time: 18
Reenqueueing errored packet 47771 at time 1268
Reenqueueing errored packet 33742 at time 1278
Additional hops: 1752
Set signal latency stall time: 18
Additional hops: 1759
Set signal latency stall time: 14
Additional hops: 1763
Set signal latency stall time: 8
Additional hops: 1767
Set signal latency stall time: 8
Additional hops: 1775
Set signal latency stall time: 16
Additional hops: 1787
Set signal latency stall time: 24
Additional hops: 1794
Set signal latency stall time: 14
Reenqueueing errored packet 45715 at time 1289
Reenqueueing errored packet 56521 at time 1292
Reenqueueing errored packet 35140 at time 1294
Additional hops: 1802
Set signal latency stall time: 16
Reenqueueing errored packet 32061 at time 1297
Additional hops: 1813
Set signal latency stall time: 22
Additional hops: 1821
Set signal latency stall time: 16
Reenqueueing errored packet 29994 at time 1300
Additional hops: 1828
Set signal latency stall time: 14
Reenqueueing errored packet 43997 at time 1303
Additional hops: 1837
Set signal latency stall time: 18
Additional hops: 1844
Set signal latency stall time: 14
Additional hops: 1847
Set signal latency stall time: 6
Reenqueueing errored packet 31046 at time 1311
Reenqueueing errored packet 36106 at time 1312
Additional hops: 1854
Set signal latency stall time: 14
Reenqueueing errored packet 36008 at time 1314
Reenqueueing errored packet 38683 at time 1315
Reenqueueing errored packet 50317 at time 1317
Additional hops: 1867
Set signal latency stall time: 26
Reenqueueing errored packet 30116 at time 1320
Additional hops: 1873
Set signal latency stall time: 12
Reenqueueing errored packet 45567 at time 1323
Reenqueueing errored packet 35541 at time 1324
Additional hops: 1882
Set signal latency stall time: 18
Additional hops: 1891
Set signal latency stall time: 18
Additional hops: 1893
Set signal latency stall time: 4
Reenqueueing errored packet 37131 at time 1328
Additional hops: 1900
Set signal latency stall time: 14
Additional hops: 1907
Set signal latency stall time: 14
Reenqueueing errored packet 58932 at time 1332
Reenqueueing errored packet 47053 at time 1333
Additional hops: 1914
Set signal latency stall time: 14
Additional hops: 1918
Set signal latency stall time: 8
Reenqueueing errored packet 47181 at time 1343
Additional hops: 1931
Set signal latency stall time: 26
Reenqueueing errored packet 36117 at time 1344
Reenqueueing errored packet 56923 at time 1345
Reenqueueing errored packet 39875 at time 1345
Reenqueueing errored packet 30143 at time 1345
Reenqueueing errored packet 30156 at time 1345
Additional hops: 1939
Set signal latency stall time: 16
Reenqueueing errored packet 40508 at time 1348
Additional hops: 1943
Set signal latency stall time: 8
Additional hops: 1949
Set signal latency stall time: 12
Reenqueueing errored packet 55164 at time 1357
Additional hops: 1954
Set signal latency stall time: 10
Additional hops: 1965
Set signal latency stall time: 22
Reenqueueing errored packet 35340 at time 1362
Additional hops: 1971
Set signal latency stall time: 12
Additional hops: 1977
Set signal latency stall time: 12
Additional hops: 1979
Set signal latency stall time: 4
Additional hops: 1987
Set signal latency stall time: 16
Reenqueueing errored packet 59994 at time 1369
Reenqueueing errored packet 36834 at time 1369
Reenqueueing errored packet 30288 at time 1370
Additional hops: 1999
Set signal latency stall time: 24
Reenqueueing errored packet 57773 at time 1373
Reenqueueing errored packet 49168 at time 1378
Additional hops: 2002
Set signal latency stall time: 6
Reenqueueing errored packet 46621 at time 1380
Additional hops: 2007
Set signal latency stall time: 10
Reenqueueing errored packet 30471 at time 1382
Reenqueueing errored packet 37343 at time 1385
Reenqueueing errored packet 61241 at time 1386
Additional hops: 2015
Set signal latency stall time: 16
Additional hops: 2023
Set signal latency stall time: 16
Reenqueueing errored packet 58889 at time 1391
Reenqueueing errored packet 31264 at time 1397
Additional hops: 2027
Set signal latency stall time: 8
Additional hops: 2031
Set signal latency stall time: 8
Additional hops: 2034
Set signal latency stall time: 6
Reenqueueing errored packet 40084 at time 1403
Reenqueueing errored packet 33718 at time 1406
Reenqueueing errored packet 62195 at time 1408
Additional hops: 2047
Set signal latency stall time: 26
Reenqueueing errored packet 55079 at time 1409
Reenqueueing errored packet 61556 at time 1409
Additional hops: 2065
Set signal latency stall time: 36
Additional hops: 2069
Set signal latency stall time: 8
Additional hops: 2080
Set signal latency stall time: 22
Additional hops: 2085
Set signal latency stall time: 10
Additional hops: 2089
Set signal latency stall time: 8
Additional hops: 2094
Set signal latency stall time: 10
Reenqueueing errored packet 47920 at time 1428
Reenqueueing errored packet 63080 at time 1432
Reenqueueing errored packet 42808 at time 1432
Additional hops: 2099
Set signal latency stall time: 10
Reenqueueing errored packet 33182 at time 1435
Additional hops: 2106
Set signal latency stall time: 14
Reenqueueing errored packet 61756 at time 1438
Additional hops: 2113
Set signal latency stall time: 14
Additional hops: 2118
Set signal latency stall time: 10
Reenqueueing errored packet 58300 at time 1443
Reenqueueing errored packet 35468 at time 1443
Additional hops: 2123
Set signal latency stall time: 10
Additional hops: 2133
Set signal latency stall time: 20
Reenqueueing errored packet 40305 at time 1450
Additional hops: 2139
Set signal latency stall time: 12
Additional hops: 2146
Set signal latency stall time: 14
Additional hops: 2149
Set signal latency stall time: 6
Reenqueueing errored packet 48240 at time 1453
Additional hops: 2157
Set signal latency stall time: 16
Reenqueueing errored packet 55216 at time 1456
Reenqueueing errored packet 26968 at time 1456
Reenqueueing errored packet 64426 at time 1457
Reenqueueing errored packet 43805 at time 1457
Additional hops: 2167
Set signal latency stall time: 20
Additional hops: 2178
Set signal latency stall time: 22
Reenqueueing errored packet 44406 at time 1463
Reenqueueing errored packet 43976 at time 1465
Additional hops: 2182
Set signal latency stall time: 8
Reenqueueing errored packet 39169 at time 1467
Reenqueueing errored packet 39332 at time 1471
Reenqueueing errored packet 63411 at time 1475
Reenqueueing errored packet 37092 at time 1479
Reenqueueing errored packet 34574 at time 1482
Additional hops: 2190
Set signal latency stall time: 16
Additional hops: 2194
Set signal latency stall time: 8
Additional hops: 2197
Set signal latency stall time: 6
Reenqueueing errored packet 64168 at time 1494
Reenqueueing errored packet 53365 at time 1494
Reenqueueing errored packet 41080 at time 1499
Additional hops: 2201
Set signal latency stall time: 8
Additional hops: 2209
Set signal latency stall time: 16
Reenqueueing errored packet 65360 at time 1512
Additional hops: 2214
Set signal latency stall time: 10
Additional hops: 2219
Set signal latency stall time: 10
Reenqueueing errored packet 37189 at time 1524
Additional hops: 2228
Set signal latency stall time: 18
Reenqueueing errored packet 60067 at time 1526
Reenqueueing errored packet 59766 at time 1526
Additional hops: 2235
Set signal latency stall time: 14
Additional hops: 2243
Set signal latency stall time: 16
Additional hops: 2251
Set signal latency stall time: 16
Additional hops: 2260
Set signal latency stall time: 18
Additional hops: 2270
Set signal latency stall time: 20
Reenqueueing errored packet 54693 at time 1541
Additional hops: 2272
Set signal latency stall time: 4
Additional hops: 2275
Set signal latency stall time: 6
Reenqueueing errored packet 37371 at time 1544
Reenqueueing errored packet 44452 at time 1545
Reenqueueing errored packet 68592 at time 1547
Reenqueueing errored packet 66528 at time 1549
Reenqueueing errored packet 39633 at time 1552
Reenqueueing errored packet 53888 at time 1554
Additional hops: 2283
Set signal latency stall time: 16
Additional hops: 2291
Set signal latency stall time: 16
Additional hops: 2299
Set signal latency stall time: 16
Reenqueueing errored packet 41240 at time 1561
Additional hops: 2307
Set signal latency stall time: 16
Additional hops: 2316
Set signal latency stall time: 18
Reenqueueing errored packet 55516 at time 1571
Reenqueueing errored packet 55485 at time 1571
Additional hops: 2322
Set signal latency stall time: 12
Reenqueueing errored packet 47281 at time 1575
Additional hops: 2325
Set signal latency stall time: 6
Additional hops: 2331
Set signal latency stall time: 12
Reenqueueing errored packet 52636 at time 1578
Additional hops: 2337
Set signal latency stall time: 12
Reenqueueing errored packet 68679 at time 1582
Reenqueueing errored packet 37863 at time 1583
Additional hops: 2345
Set signal latency stall time: 16
Reenqueueing errored packet 60429 at time 1584
Additional hops: 2347
Set signal latency stall time: 4
Reenqueueing errored packet 55355 at time 1589
Reenqueueing errored packet 70521 at time 1590
Additional hops: 2361
Set signal latency stall time: 28
Reenqueueing errored packet 60328 at time 1592
Additional hops: 2364
Set signal latency stall time: 6
Reenqueueing errored packet 63181 at time 1600
Reenqueueing errored packet 48800 at time 1606
Additional hops: 2371
Set signal latency stall time: 14
Additional hops: 2374
Set signal latency stall time: 6
Reenqueueing errored packet 62220 at time 1613
Additional hops: 2381
Set signal latency stall time: 14
Additional hops: 2390
Set signal latency stall time: 18
Additional hops: 2403
Set signal latency stall time: 26
Additional hops: 2406
Set signal latency stall time: 6
Reenqueueing errored packet 34559 at time 1619
Reenqueueing errored packet 42870 at time 1621
Reenqueueing errored packet 64542 at time 1624
Reenqueueing errored packet 47854 at time 1628
Additional hops: 2409
Set signal latency stall time: 6
Reenqueueing errored packet 70324 at time 1635
Reenqueueing errored packet 44585 at time 1635
Reenqueueing errored packet 39182 at time 1644
Additional hops: 2416
Set signal latency stall time: 14
Additional hops: 2421
Set signal latency stall time: 10
Additional hops: 2424
Set signal latency stall time: 6
Reenqueueing errored packet 73036 at time 1659
Additional hops: 2434
Set signal latency stall time: 20
Additional hops: 2441
Set signal latency stall time: 14
Reenqueueing errored packet 61539 at time 1662
Additional hops: 2444
Set signal latency stall time: 6
Reenqueueing errored packet 57745 at time 1664
Additional hops: 2451
Set signal latency stall time: 14
Additional hops: 2454
Set signal latency stall time: 6
Additional hops: 2460
Set signal latency stall time: 12
Reenqueueing errored packet 70281 at time 1669
Additional hops: 2468
Set signal latency stall time: 16
Additional hops: 2476
Set signal latency stall time: 16
Additional hops: 2481
Set signal latency stall time: 10
Reenqueueing errored packet 73984 at time 1674
Reenqueueing errored packet 46220 at time 1674
Additional hops: 2486
Set signal latency stall time: 10
Additional hops: 2495
Set signal latency stall time: 18
Reenqueueing errored packet 49058 at time 1680
Reenqueueing errored packet 48013 at time 1680
Additional hops: 2504
Set signal latency stall time: 18
Reenqueueing errored packet 48276 at time 1681
Reenqueueing errored packet 60720 at time 1684
Reenqueueing errored packet 66489 at time 1686
Reenqueueing errored packet 41154 at time 1686
Reenqueueing errored packet 40927 at time 1687
Additional hops: 2508
Set signal latency stall time: 8
Additional hops: 2516
Set signal latency stall time: 16
Reenqueueing errored packet 65547 at time 1696
Reenqueueing errored packet 55992 at time 1696
Additional hops: 2528
Set signal latency stall time: 24
Additional hops: 2535
Set signal latency stall time: 14
Additional hops: 2538
Set signal latency stall time: 6
Reenqueueing errored packet 36955 at time 1699
Reenqueueing errored packet 75393 at time 1703
Additional hops: 2545
Set signal latency stall time: 14
Reenqueueing errored packet 59661 at time 1711
Reenqueueing errored packet 55679 at time 1711
Additional hops: 2550
Set signal latency stall time: 10
Additional hops: 2560
Set signal latency stall time: 20
Reenqueueing errored packet 59046 at time 1720
Reenqueueing errored packet 36880 at time 1721
Additional hops: 2567
Set signal latency stall time: 14
Reenqueueing errored packet 72057 at time 1724
Additional hops: 2572
Set signal latency stall time: 10
Additional hops: 2577
Set signal latency stall time: 10
Additional hops: 2585
Set signal latency stall time: 16
Reenqueueing errored packet 52314 at time 1737
Reenqueueing errored packet 66569 at time 1739
Reenqueueing errored packet 57456 at time 1739
Reenqueueing errored packet 75082 at time 1742
Additional hops: 2587
Set signal latency stall time: 4
Reenqueueing errored packet 77711 at time 1751
Reenqueueing errored packet 63190 at time 1751
Additional hops: 2592
Set signal latency stall time: 10
Reenqueueing errored packet 69445 at time 1762
Additional hops: 2597
Set signal latency stall time: 10
Additional hops: 2604
Set signal latency stall time: 14
Additional hops: 2611
Set signal latency stall time: 14
Reenqueueing errored packet 61708 at time 1773
Additional hops: 2616
Set signal latency stall time: 10
Additional hops: 2621
Set signal latency stall time: 10
Additional hops: 2633
Set signal latency stall time: 24
Reenqueueing errored packet 57640 at time 1778
Additional hops: 2643
Set signal latency stall time: 20
Additional hops: 2646
Set signal latency stall time: 6
Additional hops: 2654
Set signal latency stall time: 16
Reenqueueing errored packet 47549 at time 1783
Reenqueueing errored packet 50675 at time 1785
Reenqueueing errored packet 66563 at time 1785
Reenqueueing errored packet 77245 at time 1786
Additional hops: 2663
Set signal latency stall time: 18
Additional hops: 2671
Set signal latency stall time: 16
Additional hops: 2684
Set signal latency stall time: 26
Reenqueueing errored packet 48581 at time 1799
Reenqueueing errored packet 64315 at time 1799
Reenqueueing errored packet 52565 at time 1801
Additional hops: 2693
Set signal latency stall time: 18
Additional hops: 2699
Set signal latency stall time: 12
Reenqueueing errored packet 46233 at time 1808
Reenqueueing errored packet 40173 at time 1810
Additional hops: 2705
Set signal latency stall time: 12
Reenqueueing errored packet 60880 at time 1818
Reenqueueing errored packet 42151 at time 1819
Reenqueueing errored packet 52770 at time 1823
Reenqueueing errored packet 51321 at time 1824
Additional hops: 2708
Set signal latency stall time: 6
Additional hops: 2716
Set signal latency stall time: 16
Reenqueueing errored packet 72902 at time 1837
Additional hops: 2721
Set signal latency stall time: 10
Reenqueueing errored packet 55042 at time 1849
Additional hops: 2731
Set signal latency stall time: 20
Reenqueueing errored packet 52488 at time 1852
Additional hops: 2743
Set signal latency stall time: 24
Additional hops: 2746
Set signal latency stall time: 6
Reenqueueing errored packet 65505 at time 1869
Reenqueueing errored packet 62419 at time 1870
Additional hops: 2749
Set signal latency stall time: 6
Additional hops: 2752
Set signal latency stall time: 6
Reenqueueing errored packet 83309 at time 1882
Reenqueueing errored packet 39367 at time 1883
Reenqueueing errored packet 83469 at time 1884
Additional hops: 2759
Set signal latency stall time: 14
Additional hops: 2772
Set signal latency stall time: 26
Additional hops: 2776
Set signal latency stall time: 8
Additional hops: 2786
Set signal latency stall time: 20
Reenqueueing errored packet 71504 at time 1897
Additional hops: 2799
Set signal latency stall time: 26
Reenqueueing errored packet 55493 at time 1900
Additional hops: 2809
Set signal latency stall time: 20
Reenqueueing errored packet 43863 at time 1910
Additional hops: 2818
Set signal latency stall time: 18
Reenqueueing errored packet 42827 at time 1913
Additional hops: 2821
Set signal latency stall time: 6
Additional hops: 2829
Set signal latency stall time: 16
Additional hops: 2830
Set signal latency stall time: 2
Additional hops: 2837
Set signal latency stall time: 14
Reenqueueing errored packet 85634 at time 1923
Reenqueueing errored packet 78340 at time 1924
Reenqueueing errored packet 43491 at time 1924
Reenqueueing errored packet 41096 at time 1925
Additional hops: 2846
Set signal latency stall time: 18
Additional hops: 2851
Set signal latency stall time: 10
Reenqueueing errored packet 58762 at time 1929
Additional hops: 2854
Set signal latency stall time: 6
Reenqueueing errored packet 51340 at time 1935
Reenqueueing errored packet 85765 at time 1936
Additional hops: 2864
Set signal latency stall time: 20
Reenqueueing errored packet 56622 at time 1937
Reenqueueing errored packet 66242 at time 1938
Reenqueueing errored packet 52930 at time 1945
Additional hops: 2873
Set signal latency stall time: 18
Additional hops: 2879
Set signal latency stall time: 12
Additional hops: 2885
Set signal latency stall time: 12
Additional hops: 2890
Set signal latency stall time: 10
Reenqueueing errored packet 61830 at time 1957
Reenqueueing errored packet 57910 at time 1961
Additional hops: 2894
Set signal latency stall time: 8
Reenqueueing errored packet 72995 at time 1964
Reenqueueing errored packet 71113 at time 1965
Reenqueueing errored packet 60415 at time 1966
Reenqueueing errored packet 66282 at time 1971
Additional hops: 2906
Set signal latency stall time: 24
Additional hops: 2916
Set signal latency stall time: 20
Additional hops: 2920
Set signal latency stall time: 8
Additional hops: 2923
Set signal latency stall time: 6
Additional hops: 2928
Set signal latency stall time: 10
Additional hops: 2938
Set signal latency stall time: 20
Reenqueueing errored packet 68011 at time 1998
Reenqueueing errored packet 58028 at time 1998
Additional hops: 2943
Set signal latency stall time: 10
Reenqueueing errored packet 43813 at time 2005
Reenqueueing errored packet 78856 at time 2007
Additional hops: 2946
Set signal latency stall time: 6
Reenqueueing errored packet 45636 at time 2010
Reenqueueing errored packet 75476 at time 2013
Reenqueueing errored packet 71419 at time 2016
Additional hops: 2952
Set signal latency stall time: 12
Reenqueueing errored packet 69035 at time 2018
Additional hops: 2958
Set signal latency stall time: 12
Reenqueueing errored packet 60008 at time 2029
Additional hops: 2967
Set signal latency stall time: 18
Additional hops: 2980
Set signal latency stall time: 26
Additional hops: 2984
Set signal latency stall time: 8
Reenqueueing errored packet 71980 at time 2041
Additional hops: 2990
Set signal latency stall time: 12
Additional hops: 2997
Set signal latency stall time: 14
Reenqueueing errored packet 78468 at time 2046
Reenqueueing errored packet 73365 at time 2048
Additional hops: 3001
Set signal latency stall time: 8
Additional hops: 3009
Set signal latency stall time: 16
Reenqueueing errored packet 76348 at time 2054
Reenqueueing errored packet 74484 at time 2057
Additional hops: 3012
Set signal latency stall time: 6
Reenqueueing errored packet 77203 at time 2060
Additional hops: 3024
Set signal latency stall time: 24
Reenqueueing errored packet 46993 at time 2061
Reenqueueing errored packet 86012 at time 2065
Reenqueueing errored packet 52696 at time 2068
Additional hops: 3032
Set signal latency stall time: 16
Additional hops: 3037
Set signal latency stall time: 10
Additional hops: 3043
Set signal latency stall time: 12
Additional hops: 3051
Set signal latency stall time: 16
Additional hops: 3062
Set signal latency stall time: 22
Reenqueueing errored packet 84771 at time 2085
Reenqueueing errored packet 46742 at time 2085
Additional hops: 3067
Set signal latency stall time: 10
Additional hops: 3074
Set signal latency stall time: 14
Reenqueueing errored packet 73563 at time 2087
Reenqueueing errored packet 61305 at time 2087
Additional hops: 3082
Set signal latency stall time: 16
Additional hops: 3085
Set signal latency stall time: 6
Reenqueueing errored packet 71776 at time 2096
Reenqueueing errored packet 81481 at time 2097
Reenqueueing errored packet 57705 at time 2098
Additional hops: 3089
Set signal latency stall time: 8
Reenqueueing errored packet 57442 at time 2100
Additional hops: 3096
Set signal latency stall time: 14
Additional hops: 3103
Set signal latency stall time: 14
Additional hops: 3108
Set signal latency stall time: 10
Reenqueueing errored packet 53753 at time 2106
Additional hops: 3112
Set signal latency stall time: 8
Reenqueueing errored packet 47887 at time 2107
Additional hops: 3123
Set signal latency stall time: 22
Reenqueueing errored packet 72113 at time 2108
Additional hops: 3129
Set signal latency stall time: 12
Additional hops: 3137
Set signal latency stall time: 16
Additional hops: 3146
Set signal latency stall time: 18
Reenqueueing errored packet 91333 at time 2115
Reenqueueing errored packet 81755 at time 2115
Reenqueueing errored packet 55041 at time 2116
Reenqueueing errored packet 62436 at time 2117
Additional hops: 3154
Set signal latency stall time: 16
Reenqueueing errored packet 82214 at time 2122
Additional hops: 3160
Set signal latency stall time: 12
Additional hops: 3169
Set signal latency stall time: 18
Additional hops: 3172
Set signal latency stall time: 6
Reenqueueing errored packet 58166 at time 2130
Additional hops: 3178
Set signal latency stall time: 12
Reenqueueing errored packet 70023 at time 2133
Reenqueueing errored packet 89177 at time 2134
Reenqueueing errored packet 57043 at time 2134
Reenqueueing errored packet 76825 at time 2135
Additional hops: 3185
Set signal latency stall time: 14
Additional hops: 3195
Set signal latency stall time: 20
Reenqueueing errored packet 76646 at time 2144
Reenqueueing errored packet 67087 at time 2145
Additional hops: 3198
Set signal latency stall time: 6
Additional hops: 3202
Set signal latency stall time: 8
Additional hops: 3215
Set signal latency stall time: 26
Reenqueueing errored packet 59468 at time 2151
Reenqueueing errored packet 94882 at time 2154
Additional hops: 3226
Set signal latency stall time: 22
Reenqueueing errored packet 89210 at time 2159
Additional hops: 3229
Set signal latency stall time: 6
Additional hops: 3242
Set signal latency stall time: 26
Reenqueueing errored packet 53889 at time 2163
Additional hops: 3249
Set signal latency stall time: 14
Reenqueueing errored packet 95376 at time 2167
Additional hops: 3258
Set signal latency stall time: 18
Additional hops: 3262
Set signal latency stall time: 8
Reenqueueing errored packet 49309 at time 2177
Reenqueueing errored packet 51702 at time 2178
Reenqueueing errored packet 69750 at time 2180
Reenqueueing errored packet 79201 at time 2180
Reenqueueing errored packet 69398 at time 2186
Additional hops: 3269
Set signal latency stall time: 14
Reenqueueing errored packet 49788 at time 2189
Additional hops: 3277
Set signal latency stall time: 16
Additional hops: 3287
Set signal latency stall time: 20
Additional hops: 3297
Set signal latency stall time: 20
Additional hops: 3303
Set signal latency stall time: 12
Reenqueueing errored packet 79327 at time 2203
Reenqueueing errored packet 65864 at time 2207
Reenqueueing errored packet 82699 at time 2212
Additional hops: 3308
Set signal latency stall time: 10
Reenqueueing errored packet 53000 at time 2213
Additional hops: 3314
Set signal latency stall time: 12
Additional hops: 3322
Set signal latency stall time: 16
Reenqueueing errored packet 73585 at time 2220
Additional hops: 3328
Set signal latency stall time: 12
Additional hops: 3338
Set signal latency stall time: 20
Reenqueueing errored packet 77875 at time 2223
Additional hops: 3351
Set signal latency stall time: 26
Reenqueueing errored packet 79109 at time 2226
Additional hops: 3354
Set signal latency stall time: 6
Additional hops: 3365
Set signal latency stall time: 22
Additional hops: 3370
Set signal latency stall time: 10
Additional hops: 3378
Set signal latency stall time: 16
Additional hops: 3384
Set signal latency stall time: 12
Reenqueueing errored packet 98915 at time 2233
Reenqueueing errored packet 81075 at time 2234
Reenqueueing errored packet 60844 at time 2234
Reenqueueing errored packet 75102 at time 2242
Additional hops: 3393
Set signal latency stall time: 18
Additional hops: 3400
Set signal latency stall time: 14
Additional hops: 3410
Set signal latency stall time: 20
Reenqueueing errored packet 57532 at time 2243
Reenqueueing errored packet 76297 at time 2245
Additional hops: 3422
Set signal latency stall time: 24
Reenqueueing errored packet 74856 at time 2248
Reenqueueing errored packet 50007 at time 2250
Reenqueueing errored packet 49479 at time 2251
Additional hops: 3429
Set signal latency stall time: 14
Additional hops: 3432
Set signal latency stall time: 6
Reenqueueing errored packet 73112 at time 2257
Reenqueueing errored packet 52831 at time 2261
Additional hops: 3440
Set signal latency stall time: 16
Reenqueueing errored packet 97580 at time 2262
Reenqueueing errored packet 69537 at time 2263
Additional hops: 3442
Set signal latency stall time: 4
Reenqueueing errored packet 80551 at time 2270
Reenqueueing errored packet 53703 at time 2272
Reenqueueing errored packet 79484 at time 2273
Additional hops: 3450
Set signal latency stall time: 16
Reenqueueing errored packet 80512 at time 2278
Additional hops: 3458
Set signal latency stall time: 16
Additional hops: 3468
Set signal latency stall time: 20
Additional hops: 3471
Set signal latency stall time: 6
Reenqueueing errored packet 90833 at time 2289
Reenqueueing errored packet 62823 at time 2291
Reenqueueing errored packet 61735 at time 2297
Additional hops: 3473
Set signal latency stall time: 4
Additional hops: 3478
Set signal latency stall time: 10
Reenqueueing errored packet 56511 at time 2301
Reenqueueing errored packet 100725 at time 2304
Additional hops: 3481
Set signal latency stall time: 6
Additional hops: 3493
Set signal latency stall time: 24
Reenqueueing errored packet 79138 at time 2310
Reenqueueing errored packet 91369 at time 2311
Additional hops: 3496
Set signal latency stall time: 6
Additional hops: 3502
Set signal latency stall time: 12
Reenqueueing errored packet 82180 at time 2320
Additional hops: 3506
Set signal latency stall time: 8
Additional hops: 3513
Set signal latency stall time: 14
Additional hops: 3520
Set signal latency stall time: 14
Additional hops: 3525
Set signal latency stall time: 10
Reenqueueing errored packet 90875 at time 2331
Additional hops: 3532
Set signal latency stall time: 14
Reenqueueing errored packet 101843 at time 2332
Reenqueueing errored packet 50638 at time 2332
Additional hops: 3540
Set signal latency stall time: 16
Additional hops: 3543
Set signal latency stall time: 6
Additional hops: 3545
Set signal latency stall time: 4
Additional hops: 3553
Set signal latency stall time: 16
Additional hops: 3556
Set signal latency stall time: 6
Additional hops: 3564
Set signal latency stall time: 16
Reenqueueing errored packet 92274 at time 2340
Reenqueueing errored packet 85535 at time 2341
Reenqueueing errored packet 94717 at time 2342
Reenqueueing errored packet 83744 at time 2344
Reenqueueing errored packet 59873 at time 2344
Additional hops: 3572
Set signal latency stall time: 16
Reenqueueing errored packet 103456 at time 2346
Reenqueueing errored packet 82631 at time 2346
Reenqueueing errored packet 72807 at time 2349
Additional hops: 3574
Set signal latency stall time: 4
Reenqueueing errored packet 104727 at time 2355
Reenqueueing errored packet 83374 at time 2355
Reenqueueing errored packet 64917 at time 2356
Additional hops: 3580
Set signal latency stall time: 12
Reenqueueing errored packet 58737 at time 2361
Additional hops: 3584
Set signal latency stall time: 8
Reenqueueing errored packet 77112 at time 2370
Reenqueueing errored packet 65489 at time 2372
Additional hops: 3592
Set signal latency stall time: 16
Additional hops: 3600
Set signal latency stall time: 16
Additional hops: 3606
Set signal latency stall time: 12
Additional hops: 3616
Set signal latency stall time: 20
Additional hops: 3626
Set signal latency stall time: 20
Reenqueueing errored packet 84076 at time 2394
Additional hops: 3629
Set signal latency stall time: 6
Reenqueueing errored packet 66655 at time 2396
Reenqueueing errored packet 84201 at time 2398
Reenqueueing errored packet 106295 at time 2402
Additional hops: 3635
Set signal latency stall time: 12
Reenqueueing errored packet 55768 at time 2404
Additional hops: 3641
Set signal latency stall time: 12
Reenqueueing errored packet 71230 at time 2407
Additional hops: 3652
Set signal latency stall time: 22
Additional hops: 3663
Set signal latency stall time: 22
Additional hops: 3674
Set signal latency stall time: 22
Reenqueueing errored packet 77171 at time 2415
Reenqueueing errored packet 73582 at time 2418
Additional hops: 3681
Set signal latency stall time: 14
Additional hops: 3687
Set signal latency stall time: 12
Additional hops: 3693
Set signal latency stall time: 12
Reenqueueing errored packet 65523 at time 2430
Additional hops: 3697
Set signal latency stall time: 8
Reenqueueing errored packet 87616 at time 2433
Reenqueueing errored packet 73599 at time 2433
Reenqueueing errored packet 56822 at time 2433
Reenqueueing errored packet 69811 at time 2434
Additional hops: 3702
Set signal latency stall time: 10
Reenqueueing errored packet 62777 at time 2435
Additional hops: 3707
Set signal latency stall time: 10
Additional hops: 3720
Set signal latency stall time: 26
Additional hops: 3726
Set signal latency stall time: 12
Additional hops: 3732
Set signal latency stall time: 12
Additional hops: 3735
Set signal latency stall time: 6
Reenqueueing errored packet 93939 at time 2441
Additional hops: 3746
Set signal latency stall time: 22
Additional hops: 3748
Set signal latency stall time: 4
Reenqueueing errored packet 98018 at time 2445
Reenqueueing errored packet 97569 at time 2446
Reenqueueing errored packet 86478 at time 2447
Reenqueueing errored packet 88006 at time 2448
Additional hops: 3751
Set signal latency stall time: 6
Reenqueueing errored packet 86241 at time 2453
Reenqueueing errored packet 86842 at time 2453
Reenqueueing errored packet 86926 at time 2458
Additional hops: 3754
Set signal latency stall time: 6
Additional hops: 3759
Set signal latency stall time: 10
Additional hops: 3768
Set signal latency stall time: 18
Reenqueueing errored packet 63419 at time 2464
Reenqueueing errored packet 108974 at time 2465
Reenqueueing errored packet 51838 at time 2467
Reenqueueing errored packet 76835 at time 2473
Additional hops: 3776
Set signal latency stall time: 16
Reenqueueing errored packet 66172 at time 2482
Additional hops: 3788
Set signal latency stall time: 24
Reenqueueing errored packet 71019 at time 2492
Additional hops: 3793
Set signal latency stall time: 10
Additional hops: 3801
Set signal latency stall time: 16
Additional hops: 3814
Set signal latency stall time: 26
Reenqueueing errored packet 109688 at time 2504
Reenqueueing errored packet 58666 at time 2516
Additional hops: 3819
Set signal latency stall time: 10
Additional hops: 3826
Set signal latency stall time: 14
Additional hops: 3831
Set signal latency stall time: 10
Reenqueueing errored packet 69211 at time 2520
Additional hops: 3841
Set signal latency stall time: 20
Additional hops: 3853
Set signal latency stall time: 24
Reenqueueing errored packet 70131 at time 2527
Additional hops: 3860
Set signal latency stall time: 14
Reenqueueing errored packet 108354 at time 2529
Reenqueueing errored packet 59975 at time 2530
Reenqueueing errored packet 89107 at time 2532
Additional hops: 3874
Set signal latency stall time: 28
Additional hops: 3885
Set signal latency stall time: 22
Additional hops: 3891
Set signal latency stall time: 12
Additional hops: 3894
Set signal latency stall time: 6
Reenqueueing errored packet 62476 at time 2542
Reenqueueing errored packet 88874 at time 2543
Reenqueueing errored packet 112902 at time 2546
Additional hops: 3902
Set signal latency stall time: 16
Reenqueueing errored packet 73027 at time 2551
Reenqueueing errored packet 56853 at time 2551
Additional hops: 3908
Set signal latency stall time: 12
Additional hops: 3917
Set signal latency stall time: 18
Additional hops: 3922
Set signal latency stall time: 10
Additional hops: 3929
Set signal latency stall time: 14
Reenqueueing errored packet 73836 at time 2559
Additional hops: 3936
Set signal latency stall time: 14
Additional hops: 3939
Set signal latency stall time: 6
Additional hops: 3945
Set signal latency stall time: 12
Additional hops: 3958
Set signal latency stall time: 26
Reenqueueing errored packet 56902 at time 2563
Additional hops: 3966
Set signal latency stall time: 16
Reenqueueing errored packet 90840 at time 2564
Reenqueueing errored packet 96632 at time 2565
Reenqueueing errored packet 76782 at time 2567
Reenqueueing errored packet 114060 at time 2569
Additional hops: 3970
Set signal latency stall time: 8
Reenqueueing errored packet 90814 at time 2571
Additional hops: 3974
Set signal latency stall time: 8
Reenqueueing errored packet 58212 at time 2572
Additional hops: 3977
Set signal latency stall time: 6
Reenqueueing errored packet 70042 at time 2574
Reenqueueing errored packet 91514 at time 2575
Reenqueueing errored packet 112241 at time 2579
Reenqueueing errored packet 114076 at time 2580
Reenqueueing errored packet 98815 at time 2580
Reenqueueing errored packet 61807 at time 2580
Additional hops: 3990
Set signal latency stall time: 26
Additional hops: 3997
Set signal latency stall time: 14
Additional hops: 4007
Set signal latency stall time: 20
Reenqueueing errored packet 56455 at time 2589
Reenqueueing errored packet 75325 at time 2595
Additional hops: 4009
Set signal latency stall time: 4
Reenqueueing errored packet 58796 at time 2602
Reenqueueing errored packet 100546 at time 2603
Additional hops: 4020
Set signal latency stall time: 22
Reenqueueing errored packet 62271 at time 2607
Additional hops: 4031
Set signal latency stall time: 22
Additional hops: 4040
Set signal latency stall time: 18
Additional hops: 4049
Set signal latency stall time: 18
Additional hops: 4054
Set signal latency stall time: 10
Reenqueueing errored packet 69091 at time 2626
Reenqueueing errored packet 78167 at time 2630
Reenqueueing errored packet 72556 at time 2633
Reenqueueing errored packet 57042 at time 2634
Reenqueueing errored packet 70120 at time 2635
Additional hops: 4060
Set signal latency stall time: 12
Additional hops: 4066
Set signal latency stall time: 12
Additional hops: 4073
Set signal latency stall time: 14
Reenqueueing errored packet 77873 at time 2652
Reenqueueing errored packet 78686 at time 2657
Reenqueueing errored packet 93171 at time 2663
Additional hops: 4078
Set signal latency stall time: 10
Additional hops: 4083
Set signal latency stall time: 10
Additional hops: 4087
Set signal latency stall time: 8
Reenqueueing errored packet 92735 at time 2677
Reenqueueing errored packet 118421 at time 2678
Reenqueueing errored packet 108460 at time 2682
Additional hops: 4095
Set signal latency stall time: 16
Additional hops: 4099
Set signal latency stall time: 8
Additional hops: 4105
Set signal latency stall time: 12
Reenqueueing errored packet 118503 at time 2694
Additional hops: 4108
Set signal latency stall time: 6
Reenqueueing errored packet 64763 at time 2701
Reenqueueing errored packet 77710 at time 2703
Additional hops: 4117
Set signal latency stall time: 18
Reenqueueing errored packet 97752 at time 2707
Reenqueueing errored packet 74220 at time 2723
Additional hops: 4124
Set signal latency stall time: 14
Additional hops: 4129
Set signal latency stall time: 10
Additional hops: 4139
Set signal latency stall time: 20
Additional hops: 4152
Set signal latency stall time: 26
Reenqueueing errored packet 105127 at time 2739
Additional hops: 4157
Set signal latency stall time: 10
Reenqueueing errored packet 72697 at time 2742
Additional hops: 4164
Set signal latency stall time: 14
Additional hops: 4173
Set signal latency stall time: 18
Additional hops: 4180
Set signal latency stall time: 14
Reenqueueing errored packet 85863 at time 2750
Additional hops: 4191
Set signal latency stall time: 22
Additional hops: 4195
Set signal latency stall time: 8
Reenqueueing errored packet 71123 at time 2754
Reenqueueing errored packet 81170 at time 2757
Additional hops: 4200
Set signal latency stall time: 10
Reenqueueing errored packet 121993 at time 2761
Reenqueueing errored packet 61360 at time 2761
Reenqueueing errored packet 86681 at time 2762
Additional hops: 4204
Set signal latency stall time: 8
Additional hops: 4214
Set signal latency stall time: 20
Reenqueueing errored packet 84346 at time 2764
Additional hops: 4219
Set signal latency stall time: 10
Additional hops: 4228
Set signal latency stall time: 18
Reenqueueing errored packet 104736 at time 2768
Reenqueueing errored packet 122612 at time 2772
Additional hops: 4238
Set signal latency stall time: 20
Reenqueueing errored packet 60754 at time 2774
Additional hops: 4247
Set signal latency stall time: 18
Reenqueueing errored packet 108841 at time 2775
Additional hops: 4254
Set signal latency stall time: 14
Reenqueueing errored packet 94782 at time 2784
Reenqueueing errored packet 89677 at time 2786
Additional hops: 4259
Set signal latency stall time: 10
Reenqueueing errored packet 65285 at time 2793
Reenqueueing errored packet 82778 at time 2794
Reenqueueing errored packet 81862 at time 2797
Additional hops: 4267
Set signal latency stall time: 16
Additional hops: 4275
Set signal latency stall time: 16
Reenqueueing errored packet 84656 at time 2803
Additional hops: 4286
Set signal latency stall time: 22
Reenqueueing errored packet 79953 at time 2815
Reenqueueing errored packet 67342 at time 2816
Additional hops: 4292
Set signal latency stall time: 12
Additional hops: 4297
Set signal latency stall time: 10
Additional hops: 4301
Set signal latency stall time: 8
Additional hops: 4309
Set signal latency stall time: 16
Additional hops: 4313
Set signal latency stall time: 8
Reenqueueing errored packet 85064 at time 2829
Reenqueueing errored packet 100153 at time 2830
Reenqueueing errored packet 88445 at time 2830
Additional hops: 4327
Set signal latency stall time: 28
Reenqueueing errored packet 125657 at time 2837
Reenqueueing errored packet 60991 at time 2837
Reenqueueing errored packet 88354 at time 2843
Additional hops: 4337
Set signal latency stall time: 20
Additional hops: 4340
Set signal latency stall time: 6
Additional hops: 4354
Set signal latency stall time: 28
Additional hops: 4360
Set signal latency stall time: 12
Additional hops: 4362
Set signal latency stall time: 4
Reenqueueing errored packet 126792 at time 2857
Reenqueueing errored packet 110768 at time 2858
Additional hops: 4370
Set signal latency stall time: 16
Reenqueueing errored packet 104416 at time 2864
Reenqueueing errored packet 83744 at time 2864
Additional hops: 4377
Set signal latency stall time: 14
Reenqueueing errored packet 71457 at time 2867
Additional hops: 4383
Set signal latency stall time: 12
Additional hops: 4391
Set signal latency stall time: 16
Additional hops: 4395
Set signal latency stall time: 8
Reenqueueing errored packet 116740 at time 2875
Additional hops: 4398
Set signal latency stall time: 6
Additional hops: 4407
Set signal latency stall time: 18
Reenqueueing errored packet 62140 at time 2880
Reenqueueing errored packet 116893 at time 2881
Reenqueueing errored packet 90784 at time 2881
Reenqueueing errored packet 100932 at time 2882
Reenqueueing errored packet 116943 at time 2883
Additional hops: 4411
Set signal latency stall time: 8
Reenqueueing errored packet 102805 at time 2887
Reenqueueing errored packet 114376 at time 2893
Additional hops: 4421
Set signal latency stall time: 20
Additional hops: 4424
Set signal latency stall time: 6
Additional hops: 4427
Set signal latency stall time: 6
Reenqueueing errored packet 88835 at time 2895
Additional hops: 4437
Set signal latency stall time: 20
Reenqueueing errored packet 128623 at time 2901
Reenqueueing errored packet 103141 at time 2901
Additional hops: 4447
Set signal latency stall time: 20
Reenqueueing errored packet 82083 at time 2915
Additional hops: 4457
Set signal latency stall time: 20
Reenqueueing errored packet 69447 at time 2918
Additional hops: 4462
Set signal latency stall time: 10
Additional hops: 4469
Set signal latency stall time: 14
Additional hops: 4473
Set signal latency stall time: 8
Reenqueueing errored packet 91753 at time 2930
Reenqueueing errored packet 90010 at time 2930
Additional hops: 4477
Set signal latency stall time: 8
Additional hops: 4482
Set signal latency stall time: 10
Additional hops: 4488
Set signal latency stall time: 12
Reenqueueing errored packet 128274 at time 2937
Reenqueueing errored packet 88286 at time 2938
Additional hops: 4496
Set signal latency stall time: 16
Reenqueueing errored packet 84954 at time 2939
Additional hops: 4508
Set signal latency stall time: 24
Additional hops: 4518
Set signal latency stall time: 20
Reenqueueing errored packet 80661 at time 2942
Reenqueueing errored packet 86119 at time 2944
Additional hops: 4525
Set signal latency stall time: 14
Additional hops: 4531
Set signal latency stall time: 12
Additional hops: 4539
Set signal latency stall time: 16
Reenqueueing errored packet 83155 at time 2948
Additional hops: 4545
Set signal latency stall time: 12
Reenqueueing errored packet 105590 at time 2955
Reenqueueing errored packet 83387 at time 2958
Reenqueueing errored packet 94505 at time 2959
Reenqueueing errored packet 77530 at time 2961
Additional hops: 4552
Set signal latency stall time: 14
Reenqueueing errored packet 123265 at time 2962
Additional hops: 4559
Set signal latency stall time: 14
Additional hops: 4566
Set signal latency stall time: 14
Reenqueueing errored packet 98933 at time 2964
Reenqueueing errored packet 81143 at time 2964
Additional hops: 4576
Set signal latency stall time: 20
Additional hops: 4582
Set signal latency stall time: 12
Reenqueueing errored packet 103964 at time 2976
Reenqueueing errored packet 92321 at time 2977
Reenqueueing errored packet 106031 at time 2978
Reenqueueing errored packet 129719 at time 2987
Additional hops: 4587
Set signal latency stall time: 10
Reenqueueing errored packet 73332 at time 2994
Additional hops: 4591
Set signal latency stall time: 8
Reenqueueing errored packet 132890 at time 3004
Additional hops: 4604
Set signal latency stall time: 26
Reenqueueing errored packet 131439 at time 3005
Additional hops: 4611
Set signal latency stall time: 14
Additional hops: 4618
Set signal latency stall time: 14
Additional hops: 4628
Set signal latency stall time: 20
Additional hops: 4632
Set signal latency stall time: 8
Additional hops: 4642
Set signal latency stall time: 20
Additional hops: 4651
Set signal latency stall time: 18
Additional hops: 4656
Set signal latency stall time: 10
Additional hops: 4668
Set signal latency stall time: 24
Reenqueueing errored packet 91595 at time 3021
Additional hops: 4675
Set signal latency stall time: 14
Reenqueueing errored packet 89862 at time 3023
Additional hops: 4683
Set signal latency stall time: 16
Reenqueueing errored packet 91937 at time 3025
Reenqueueing errored packet 106819 at time 3029
Reenqueueing errored packet 75814 at time 3031
Additional hops: 4687
Set signal latency stall time: 8
Reenqueueing errored packet 74509 at time 3032
Reenqueueing errored packet 66414 at time 3036
Reenqueueing errored packet 85048 at time 3037
Reenqueueing errored packet 69394 at time 3038
Additional hops: 4695
Set signal latency stall time: 16
Reenqueueing errored packet 94594 at time 3040
Reenqueueing errored packet 86782 at time 3040
Reenqueueing errored packet 67450 at time 3044
Additional hops: 4703
Set signal latency stall time: 16
Additional hops: 4707
Set signal latency stall time: 8
Additional hops: 4717
Set signal latency stall time: 20
Reenqueueing errored packet 111620 at time 3055
Reenqueueing errored packet 102967 at time 3056
Reenqueueing errored packet 93010 at time 3062
Reenqueueing errored packet 70421 at time 3070
Additional hops: 4722
Set signal latency stall time: 10
Additional hops: 4729
Set signal latency stall time: 14
Additional hops: 4742
Set signal latency stall time: 26
Additional hops: 4748
Set signal latency stall time: 12
Reenqueueing errored packet 89338 at time 3099
Additional hops: 4753
Set signal latency stall time: 10
Reenqueueing errored packet 108964 at time 3104
Additional hops: 4756
Set signal latency stall time: 6
Reenqueueing errored packet 111088 at time 3110
Reenqueueing errored packet 101197 at time 3114
Additional hops: 4763
Set signal latency stall time: 14
Reenqueueing errored packet 115562 at time 3115
Additional hops: 4772
Set signal latency stall time: 18
Reenqueueing errored packet 70194 at time 3124
Reenqueueing errored packet 83301 at time 3129
Additional hops: 4781
Set signal latency stall time: 18
Additional hops: 4787
Set signal latency stall time: 12
Reenqueueing errored packet 88798 at time 3136
Additional hops: 4793
Set signal latency stall time: 12
Additional hops: 4797
Set signal latency stall time: 8
Additional hops: 4805
Set signal latency stall time: 16
Reenqueueing errored packet 116878 at time 3145
Additional hops: 4811
Set signal latency stall time: 12
Reenqueueing errored packet 95880 at time 3148
Reenqueueing errored packet 84776 at time 3149
Reenqueueing errored packet 111639 at time 3151
Additional hops: 4819
Set signal latency stall time: 16
Additional hops: 4829
Set signal latency stall time: 20
Reenqueueing errored packet 102589 at time 3158
Reenqueueing errored packet 112585 at time 3160
Additional hops: 4836
Set signal latency stall time: 14
Additional hops: 4850
Set signal latency stall time: 28
Additional hops: 4855
Set signal latency stall time: 10
Reenqueueing errored packet 90698 at time 3168
Reenqueueing errored packet 84062 at time 3173
Reenqueueing errored packet 127628 at time 3175
Reenqueueing errored packet 99670 at time 3177
Additional hops: 4862
Set signal latency stall time: 14
Additional hops: 4868
Set signal latency stall time: 12
Additional hops: 4877
Set signal latency stall time: 18
Reenqueueing errored packet 90814 at time 3192
Additional hops: 4884
Set signal latency stall time: 14
Reenqueueing errored packet 114169 at time 3196
Additional hops: 4888
Set signal latency stall time: 8
Reenqueueing errored packet 90508 at time 3203
Additional hops: 4899
Set signal latency stall time: 22
Additional hops: 4903
Set signal latency stall time: 8
Additional hops: 4909
Set signal latency stall time: 12
Additional hops: 4914
Set signal latency stall time: 10
Additional hops: 4919
Set signal latency stall time: 10
Additional hops: 4926
Set signal latency stall time: 14
Reenqueueing errored packet 102782 at time 3209
Reenqueueing errored packet 75492 at time 3209
Reenqueueing errored packet 118236 at time 3210
Additional hops: 4937
Set signal latency stall time: 22
Reenqueueing errored packet 126703 at time 3213
Additional hops: 4942
Set signal latency stall time: 10
Reenqueueing errored packet 101496 at time 3217
Reenqueueing errored packet 99805 at time 3218
Reenqueueing errored packet 125890 at time 3219
Reenqueueing errored packet 114605 at time 3223
Additional hops: 4945
Set signal latency stall time: 6
Reenqueueing errored packet 88263 at time 3227
Reenqueueing errored packet 78330 at time 3227
Additional hops: 4956
Set signal latency stall time: 22
Additional hops: 4958
Set signal latency stall time: 4
Reenqueueing errored packet 142959 at time 3232
Reenqueueing errored packet 79390 at time 3234
Reenqueueing errored packet 143546 at time 3235
Additional hops: 4969
Set signal latency stall time: 22
Additional hops: 4979
Set signal latency stall time: 20
Additional hops: 4989
Set signal latency stall time: 20
Additional hops: 5001
Set signal latency stall time: 24
Additional hops: 5010
Set signal latency stall time: 18
Additional hops: 5019
Set signal latency stall time: 18
Additional hops: 5025
Set signal latency stall time: 12
Reenqueueing errored packet 76958 at time 3253
Reenqueueing errored packet 115858 at time 3258
Additional hops: 5033
Set signal latency stall time: 16
Reenqueueing errored packet 83058 at time 3260
Reenqueueing errored packet 77277 at time 3261
Additional hops: 5036
Set signal latency stall time: 6
Additional hops: 5044
Set signal latency stall time: 16
Reenqueueing errored packet 112724 at time 3265
Reenqueueing errored packet 80656 at time 3265
Reenqueueing errored packet 145056 at time 3269
Reenqueueing errored packet 96255 at time 3269
Reenqueueing errored packet 81565 at time 3270
Additional hops: 5050
Set signal latency stall time: 12
Reenqueueing errored packet 113663 at time 3275
Reenqueueing errored packet 105893 at time 3280
Additional hops: 5057
Set signal latency stall time: 14
Reenqueueing errored packet 131056 at time 3287
Additional hops: 5065
Set signal latency stall time: 16
Additional hops: 5072
Set signal latency stall time: 14
Reenqueueing errored packet 132827 at time 3295
Additional hops: 5077
Set signal latency stall time: 10
Reenqueueing errored packet 120511 at time 3306
Reenqueueing errored packet 117576 at time 3307
Additional hops: 5082
Set signal latency stall time: 10
Additional hops: 5089
Set signal latency stall time: 14
Additional hops: 5094
Set signal latency stall time: 10
Additional hops: 5101
Set signal latency stall time: 14
Reenqueueing errored packet 118511 at time 3315
Additional hops: 5107
Set signal latency stall time: 12
Reenqueueing errored packet 94385 at time 3318
Reenqueueing errored packet 102083 at time 3321
Additional hops: 5110
Set signal latency stall time: 6
Additional hops: 5117
Set signal latency stall time: 14
Reenqueueing errored packet 100868 at time 3325
Additional hops: 5123
Set signal latency stall time: 12
Additional hops: 5127
Set signal latency stall time: 8
Reenqueueing errored packet 102630 at time 3328
Reenqueueing errored packet 147918 at time 3329
Reenqueueing errored packet 145352 at time 3329
Additional hops: 5130
Set signal latency stall time: 6
Additional hops: 5136
Set signal latency stall time: 12
Reenqueueing errored packet 127282 at time 3335
Reenqueueing errored packet 95091 at time 3338
Reenqueueing errored packet 92172 at time 3338
Additional hops: 5140
Set signal latency stall time: 8
Reenqueueing errored packet 119911 at time 3340
Additional hops: 5146
Set signal latency stall time: 12
Additional hops: 5152
Set signal latency stall time: 12
Additional hops: 5162
Set signal latency stall time: 20
Reenqueueing errored packet 94824 at time 3346
Additional hops: 5168
Set signal latency stall time: 12
Reenqueueing errored packet 126195 at time 3347
Additional hops: 5179
Set signal latency stall time: 22
Additional hops: 5188
Set signal latency stall time: 18
Additional hops: 5192
Set signal latency stall time: 8
Reenqueueing errored packet 125296 at time 3353
Additional hops: 5200
Set signal latency stall time: 16
Reenqueueing errored packet 103172 at time 3354
Additional hops: 5208
Set signal latency stall time: 16
Additional hops: 5215
Set signal latency stall time: 14
Additional hops: 5223
Set signal latency stall time: 16
Reenqueueing errored packet 123279 at time 3359
[...]
Additional hops: 14887
Set signal latency stall time: 14
Additional hops: 14897
Set signal latency stall time: 20
Additional hops: 14903
Set signal latency stall time: 12
Reenqueueing errored packet 232965 at time 9096
Additional hops: 14911
Set signal latency stall time: 16
Additional hops: 14915
Set signal latency stall time: 8
Additional hops: 14923
Set signal latency stall time: 16
Reenqueueing errored packet 285522 at time 9104
Reenqueueing errored packet 347583 at time 9106
Additional hops: 14931
Set signal latency stall time: 16
Additional hops: 14935
Set signal latency stall time: 8
Reenqueueing errored packet 239279 at time 9107
Additional hops: 14945
Set signal latency stall time: 20
Reenqueueing errored packet 306522 at time 9114
Additional hops: 14953
Set signal latency stall time: 16
Reenqueueing errored packet 359503 at time 9115
Additional hops: 14955
Set signal latency stall time: 4
Additional hops: 14967
Set signal latency stall time: 24
Reenqueueing errored packet 278861 at time 9119
Reenqueueing errored packet 277462 at time 9120
Additional hops: 14976
Set signal latency stall time: 18
Reenqueueing errored packet 225521 at time 9131
Additional hops: 14983
Set signal latency stall time: 14
Additional hops: 14993
Set signal latency stall time: 20
Additional hops: 14998
Set signal latency stall time: 10
Reenqueueing errored packet 215645 at time 9142
Reenqueueing errored packet 215092 at time 9143
Additional hops: 15006
Set signal latency stall time: 16
Additional hops: 15012
Set signal latency stall time: 12
Reenqueueing errored packet 335276 at time 9151
Reenqueueing errored packet 302763 at time 9153
Additional hops: 15021
Set signal latency stall time: 18
Reenqueueing errored packet 338375 at time 9160
Reenqueueing errored packet 283010 at time 9160
Additional hops: 15031
Set signal latency stall time: 20
Additional hops: 15037
Set signal latency stall time: 12
Additional hops: 15050
Set signal latency stall time: 26
Additional hops: 15063
Set signal latency stall time: 26
Additional hops: 15068
Set signal latency stall time: 10
Additional hops: 15071
Set signal latency stall time: 6
Reenqueueing errored packet 349224 at time 9174
Reenqueueing errored packet 300537 at time 9174
Additional hops: 15078
Set signal latency stall time: 14
Reenqueueing errored packet 359380 at time 9175
Additional hops: 15083
Set signal latency stall time: 10
Additional hops: 15093
Set signal latency stall time: 20
Additional hops: 15100
Set signal latency stall time: 14
Additional hops: 15106
Set signal latency stall time: 12
Additional hops: 15111
Set signal latency stall time: 10
Additional hops: 15121
Set signal latency stall time: 20
Reenqueueing errored packet 313955 at time 9189
Reenqueueing errored packet 197315 at time 9189
Additional hops: 15131
Set signal latency stall time: 20
Additional hops: 15141
Set signal latency stall time: 20
Additional hops: 15149
Set signal latency stall time: 16
Additional hops: 15155
Set signal latency stall time: 12
Reenqueueing errored packet 313419 at time 9196
Reenqueueing errored packet 326961 at time 9197
Reenqueueing errored packet 329371 at time 9198
Additional hops: 15166
Set signal latency stall time: 22
Reenqueueing errored packet 346795 at time 9208
Reenqueueing errored packet 298795 at time 9208
Additional hops: 15170
Set signal latency stall time: 8
Additional hops: 15174
Set signal latency stall time: 8
Reenqueueing errored packet 219932 at time 9211
Additional hops: 15179
Set signal latency stall time: 10
Additional hops: 15188
Set signal latency stall time: 18
Reenqueueing errored packet 204178 at time 9213
Additional hops: 15194
Set signal latency stall time: 12
Reenqueueing errored packet 344240 at time 9217
Additional hops: 15201
Set signal latency stall time: 14
Reenqueueing errored packet 289615 at time 9221
Reenqueueing errored packet 268367 at time 9222
Additional hops: 15208
Set signal latency stall time: 14
Additional hops: 15211
Set signal latency stall time: 6
Reenqueueing errored packet 325323 at time 9231
Additional hops: 15217
Set signal latency stall time: 12
Reenqueueing errored packet 325369 at time 9232
Reenqueueing errored packet 304173 at time 9232
Additional hops: 15224
Set signal latency stall time: 14
Additional hops: 15236
Set signal latency stall time: 24
Additional hops: 15245
Set signal latency stall time: 18
Additional hops: 15248
Set signal latency stall time: 6
Additional hops: 15255
Set signal latency stall time: 14
Additional hops: 15268
Set signal latency stall time: 26
Reenqueueing errored packet 342354 at time 9256
Reenqueueing errored packet 340160 at time 9262
Additional hops: 15277
Set signal latency stall time: 18
Reenqueueing errored packet 287315 at time 9263
Reenqueueing errored packet 214191 at time 9264
Additional hops: 15285
Set signal latency stall time: 16
Additional hops: 15287
Set signal latency stall time: 4
Additional hops: 15296
Set signal latency stall time: 18
Reenqueueing errored packet 257980 at time 9273
Reenqueueing errored packet 187417 at time 9277
Additional hops: 15303
Set signal latency stall time: 14
Additional hops: 15315
Set signal latency stall time: 24
Additional hops: 15322
Set signal latency stall time: 14
Reenqueueing errored packet 296372 at time 9281
Reenqueueing errored packet 219877 at time 9291
Reenqueueing errored packet 294568 at time 9293
Reenqueueing errored packet 330093 at time 9294
Additional hops: 15330
Set signal latency stall time: 16
Additional hops: 15331
Set signal latency stall time: 2
Additional hops: 15340
Set signal latency stall time: 18
Reenqueueing errored packet 368942 at time 9302
Additional hops: 15348
Set signal latency stall time: 16
Additional hops: 15357
Set signal latency stall time: 18
Reenqueueing errored packet 336015 at time 9315
Reenqueueing errored packet 275628 at time 9319
Additional hops: 15371
Set signal latency stall time: 28
Reenqueueing errored packet 326875 at time 9324
Additional hops: 15377
Set signal latency stall time: 12
Reenqueueing errored packet 326441 at time 9333
Additional hops: 15385
Set signal latency stall time: 16
Reenqueueing errored packet 302785 at time 9337
Reenqueueing errored packet 192979 at time 9351
Reenqueueing errored packet 288443 at time 9353
Additional hops: 15394
Set signal latency stall time: 18
Additional hops: 15399
Set signal latency stall time: 10
Additional hops: 15409
Set signal latency stall time: 20
Additional hops: 15416
Set signal latency stall time: 14
Reenqueueing errored packet 354384 at time 9370
Reenqueueing errored packet 348591 at time 9380
Reenqueueing errored packet 305712 at time 9381
Additional hops: 15421
Set signal latency stall time: 10
Additional hops: 15429
Set signal latency stall time: 16
Reenqueueing errored packet 366388 at time 9398
Additional hops: 15435
Set signal latency stall time: 12
Reenqueueing errored packet 320367 at time 9409
Additional hops: 15442
Set signal latency stall time: 14
Reenqueueing errored packet 352065 at time 9412
Additional hops: 15446
Set signal latency stall time: 8
Additional hops: 15448
Set signal latency stall time: 4
Reenqueueing errored packet 370294 at time 9424
Reenqueueing errored packet 337707 at time 9424
Additional hops: 15452
Set signal latency stall time: 8
Additional hops: 15461
Set signal latency stall time: 18
Additional hops: 15466
Set signal latency stall time: 10
Reenqueueing errored packet 300016 at time 9434
Additional hops: 15477
Set signal latency stall time: 22
Reenqueueing errored packet 252211 at time 9444
Reenqueueing errored packet 298477 at time 9457
Additional hops: 15480
Set signal latency stall time: 6
Additional hops: 15484
Set signal latency stall time: 8
Additional hops: 15494
Set signal latency stall time: 20
Reenqueueing errored packet 352104 at time 9465
Reenqueueing errored packet 323687 at time 9468
Additional hops: 15499
Set signal latency stall time: 10
Additional hops: 15504
Set signal latency stall time: 10
Additional hops: 15513
Set signal latency stall time: 18
Reenqueueing errored packet 351518 at time 9487
Additional hops: 15521
Set signal latency stall time: 16
Additional hops: 15532
Set signal latency stall time: 22
Additional hops: 15537
Set signal latency stall time: 10
Reenqueueing errored packet 337576 at time 9490
Additional hops: 15543
Set signal latency stall time: 12
Additional hops: 15553
Set signal latency stall time: 20
Reenqueueing errored packet 371381 at time 9509
Additional hops: 15562
Set signal latency stall time: 18
Additional hops: 15566
Set signal latency stall time: 8
Additional hops: 15569
Set signal latency stall time: 6
Additional hops: 15572
Set signal latency stall time: 6
Additional hops: 15577
Set signal latency stall time: 10
Reenqueueing errored packet 341276 at time 9523
Additional hops: 15582
Set signal latency stall time: 10
Reenqueueing errored packet 375768 at time 9524
Additional hops: 15588
Set signal latency stall time: 12
Reenqueueing errored packet 372607 at time 9525
Reenqueueing errored packet 263263 at time 9531
Reenqueueing errored packet 354194 at time 9533
Reenqueueing errored packet 369561 at time 9534
Reenqueueing errored packet 353404 at time 9537
Additional hops: 15596
Set signal latency stall time: 16
Additional hops: 15601
Set signal latency stall time: 10
Additional hops: 15608
Set signal latency stall time: 14
Additional hops: 15623
Set signal latency stall time: 30
Additional hops: 15634
Set signal latency stall time: 22
Reenqueueing errored packet 345069 at time 9554
Reenqueueing errored packet 306309 at time 9555
Additional hops: 15644
Set signal latency stall time: 20
Additional hops: 15650
Set signal latency stall time: 12
Additional hops: 15657
Set signal latency stall time: 14
Additional hops: 15663
Set signal latency stall time: 12
Additional hops: 15671
Set signal latency stall time: 16
Additional hops: 15678
Set signal latency stall time: 14
Reenqueueing errored packet 223110 at time 9576
Reenqueueing errored packet 353635 at time 9577
Additional hops: 15690
Set signal latency stall time: 24
Additional hops: 15695
Set signal latency stall time: 10
Reenqueueing errored packet 323207 at time 9584
Reenqueueing errored packet 340841 at time 9584
Reenqueueing errored packet 376816 at time 9590
Reenqueueing errored packet 316176 at time 9590
Reenqueueing errored packet 228780 at time 9591
Additional hops: 15700
Set signal latency stall time: 10
Additional hops: 15710
Set signal latency stall time: 20
Additional hops: 15714
Set signal latency stall time: 8
Additional hops: 15719
Set signal latency stall time: 10
Additional hops: 15727
Set signal latency stall time: 16
Additional hops: 15738
Set signal latency stall time: 22
Additional hops: 15749
Set signal latency stall time: 22
Additional hops: 15757
Set signal latency stall time: 16
Reenqueueing errored packet 331769 at time 9619
Reenqueueing errored packet 320508 at time 9623
Additional hops: 15766
Set signal latency stall time: 18
Additional hops: 15773
Set signal latency stall time: 14
Additional hops: 15782
Set signal latency stall time: 18
Reenqueueing errored packet 330461 at time 9635
Reenqueueing errored packet 212934 at time 9636
Additional hops: 15788
Set signal latency stall time: 12
Additional hops: 15793
Set signal latency stall time: 10
Reenqueueing errored packet 227416 at time 9639
Additional hops: 15799
Set signal latency stall time: 12
Reenqueueing errored packet 357113 at time 9641
Additional hops: 15803
Set signal latency stall time: 8
Additional hops: 15814
Set signal latency stall time: 22
Reenqueueing errored packet 298179 at time 9644
Additional hops: 15820
Set signal latency stall time: 12
Reenqueueing errored packet 347819 at time 9649
Reenqueueing errored packet 343651 at time 9649
Reenqueueing errored packet 363136 at time 9652
Reenqueueing errored packet 259214 at time 9652
Reenqueueing errored packet 357623 at time 9657
Additional hops: 15823
Set signal latency stall time: 6
Additional hops: 15833
Set signal latency stall time: 20
Reenqueueing errored packet 360009 at time 9665
Additional hops: 15846
Set signal latency stall time: 26
Reenqueueing errored packet 222227 at time 9682
Additional hops: 15853
Set signal latency stall time: 14
Additional hops: 15865
Set signal latency stall time: 24
Reenqueueing errored packet 358693 at time 9706
Additional hops: 15872
Set signal latency stall time: 14
Additional hops: 15875
Set signal latency stall time: 6
Additional hops: 15881
Set signal latency stall time: 12
Reenqueueing errored packet 277065 at time 9723
Additional hops: 15886
Set signal latency stall time: 10
Reenqueueing errored packet 334674 at time 9727
Additional hops: 15892
Set signal latency stall time: 12
Additional hops: 15900
Set signal latency stall time: 16
Additional hops: 15905
Set signal latency stall time: 10
Additional hops: 15909
Set signal latency stall time: 8
Reenqueueing errored packet 368301 at time 9734
Reenqueueing errored packet 338864 at time 9734
Additional hops: 15915
Set signal latency stall time: 12
Additional hops: 15921
Set signal latency stall time: 12
Reenqueueing errored packet 351224 at time 9739
Reenqueueing errored packet 352773 at time 9740
Additional hops: 15928
Set signal latency stall time: 14
Reenqueueing errored packet 306590 at time 9746
Additional hops: 15933
Set signal latency stall time: 10
Reenqueueing errored packet 345191 at time 9750
Additional hops: 15940
Set signal latency stall time: 14
Additional hops: 15947
Set signal latency stall time: 14
Reenqueueing errored packet 368701 at time 9759
Reenqueueing errored packet 349669 at time 9760
Reenqueueing errored packet 316842 at time 9770
Additional hops: 15953
Set signal latency stall time: 12
Reenqueueing errored packet 366881 at time 9773
Additional hops: 15958
Set signal latency stall time: 10
Additional hops: 15968
Set signal latency stall time: 20
Additional hops: 15974
Set signal latency stall time: 12
Additional hops: 15981
Set signal latency stall time: 14
Additional hops: 15991
Set signal latency stall time: 20
Reenqueueing errored packet 327562 at time 9787
Reenqueueing errored packet 353268 at time 9796
Additional hops: 15994
Set signal latency stall time: 6
Additional hops: 16002
Set signal latency stall time: 16
Reenqueueing errored packet 326346 at time 9800
Additional hops: 16013
Set signal latency stall time: 22
Additional hops: 16018
Set signal latency stall time: 10
Reenqueueing errored packet 368398 at time 9805
Additional hops: 16025
Set signal latency stall time: 14
Additional hops: 16030
Set signal latency stall time: 10
Additional hops: 16037
Set signal latency stall time: 14
Additional hops: 16047
Set signal latency stall time: 20
Additional hops: 16054
Set signal latency stall time: 14
Additional hops: 16064
Set signal latency stall time: 20
Reenqueueing errored packet 380613 at time 9814
Additional hops: 16072
Set signal latency stall time: 16
Additional hops: 16078
Set signal latency stall time: 12
Reenqueueing errored packet 364358 at time 9820
Reenqueueing errored packet 362844 at time 9825
Reenqueueing errored packet 331380 at time 9831
Additional hops: 16089
Set signal latency stall time: 22
Additional hops: 16093
Set signal latency stall time: 8
Additional hops: 16103
Set signal latency stall time: 20
Additional hops: 16110
Set signal latency stall time: 14
Additional hops: 16119
Set signal latency stall time: 18
Reenqueueing errored packet 339479 at time 9853
Reenqueueing errored packet 346290 at time 9854
Additional hops: 16125
Set signal latency stall time: 12
Additional hops: 16137
Set signal latency stall time: 24
Reenqueueing errored packet 342926 at time 9856
Additional hops: 16141
Set signal latency stall time: 8
Reenqueueing errored packet 382391 at time 9867
Additional hops: 16149
Set signal latency stall time: 16
Additional hops: 16158
Set signal latency stall time: 18
Reenqueueing errored packet 264122 at time 9875
Additional hops: 16166
Set signal latency stall time: 16
Additional hops: 16174
Set signal latency stall time: 16
Additional hops: 16185
Set signal latency stall time: 22
Additional hops: 16189
Set signal latency stall time: 8
Additional hops: 16195
Set signal latency stall time: 12
Additional hops: 16201
Set signal latency stall time: 12
Reenqueueing errored packet 357130 at time 9887
Reenqueueing errored packet 307268 at time 9890
Reenqueueing errored packet 355921 at time 9892
Additional hops: 16211
Set signal latency stall time: 20
Reenqueueing errored packet 317255 at time 9894
Additional hops: 16218
Set signal latency stall time: 14
Additional hops: 16226
Set signal latency stall time: 16
Reenqueueing errored packet 332079 at time 9897
Reenqueueing errored packet 313432 at time 9897
Additional hops: 16234
Set signal latency stall time: 16
Additional hops: 16243
Set signal latency stall time: 18
Additional hops: 16249
Set signal latency stall time: 12
Reenqueueing errored packet 312340 at time 9902
Additional hops: 16257
Set signal latency stall time: 16
Additional hops: 16264
Set signal latency stall time: 14
Reenqueueing errored packet 371891 at time 9910
Additional hops: 16270
Set signal latency stall time: 12
Reenqueueing errored packet 298093 at time 9912
Reenqueueing errored packet 344810 at time 9913
Reenqueueing errored packet 266590 at time 9914
Additional hops: 16275
Set signal latency stall time: 10
Reenqueueing errored packet 351374 at time 9915
Additional hops: 16278
Set signal latency stall time: 6
Reenqueueing errored packet 347732 at time 9922
Reenqueueing errored packet 360635 at time 9924
Reenqueueing errored packet 368633 at time 9925
Additional hops: 16288
Set signal latency stall time: 20
Additional hops: 16296
Set signal latency stall time: 16
Additional hops: 16303
Set signal latency stall time: 14
Additional hops: 16310
Set signal latency stall time: 14
Additional hops: 16315
Set signal latency stall time: 10
Additional hops: 16317
Set signal latency stall time: 4
Additional hops: 16322
Set signal latency stall time: 10
Reenqueueing errored packet 367386 at time 9948
Additional hops: 16330
Set signal latency stall time: 16
Reenqueueing errored packet 253457 at time 9952
Reenqueueing errored packet 369288 at time 9952
Reenqueueing errored packet 356875 at time 9952
Reenqueueing errored packet 328507 at time 9954
Reenqueueing errored packet 213094 at time 9954
Additional hops: 16336
Set signal latency stall time: 12
Additional hops: 16339
Set signal latency stall time: 6
Additional hops: 16345
Set signal latency stall time: 12
Reenqueueing errored packet 382305 at time 9967
Additional hops: 16351
Set signal latency stall time: 12
Reenqueueing errored packet 359349 at time 9976
Additional hops: 16355
Set signal latency stall time: 8
Additional hops: 16361
Set signal latency stall time: 12
Additional hops: 16368
Set signal latency stall time: 14
Reenqueueing errored packet 385669 at time 9987
Reenqueueing errored packet 251776 at time 9992
Reenqueueing errored packet 378780 at time 9995
Class 0:
Packet latency average = 1108.26
	minimum = 5
	maximum = 7236
Network latency average = 1075.63
	minimum = 5
	maximum = 5516
Slowest packet = 7588
Flit latency average = 1075.63
	minimum = 5
	maximum = 5516
Slowest flit = 198601
Fragmentation average = 0
	minimum = 0
	maximum = 0
Injected packet rate average = 0.61573
	minimum = 0.4817 (at node 17)
	maximum = 0.7144 (at node 12)
Accepted packet rate average = 0.508822
	minimum = 0.4919 (at node 21)
	maximum = 0.5249 (at node 15)
Injected flit rate average = 0.61573
	minimum = 0.4817 (at node 17)
	maximum = 0.7144 (at node 12)
Accepted flit rate average= 0.508822
	minimum = 0.4919 (at node 21)
	maximum = 0.5249 (at node 15)
Injected packet length average = 1
Accepted packet length average = 1
Total in-flight flits = 68723 (0 measured)
latency change    = 1
throughput change = 1
Average latency for class 0 exceeded 500 cycles. Aborting simulation.
Too many sample periods needed to converge
Simulation unstable, ending ...
Total run time 56.0931
