BEGIN Configuration File: examples/ecc_mesh88_config_1_0.050_link_4
// $Id$

// Copyright (c) 2007-2015, Trustees of The Leland Stanford Junior University
// All rights reserved.
//
// Redistribution and use in source and binary forms, with or without
// modification, are permitted provided that the following conditions are met:
//
// Redistributions of source code must retain the above copyright notice, this
// list of conditions and the following disclaimer.
// Redistributions in binary form must reproduce the above copyright notice,
// this list of conditions and the following disclaimer in the documentation
// and/or other materials provided with the distribution.
//
// THIS SOFTWARE IS PROVIDED BY THE COPYRIGHT HOLDERS AND CONTRIBUTORS "AS IS"
// AND ANY EXPRESS OR IMPLIED WARRANTIES, INCLUDING, BUT NOT LIMITED TO, THE
// IMPLIED WARRANTIES OF MERCHANTABILITY AND FITNESS FOR A PARTICULAR PURPOSE
// ARE DISCLAIMED. IN NO EVENT SHALL THE COPYRIGHT OWNER OR CONTRIBUTORS BE
// LIABLE FOR ANY DIRECT, INDIRECT, INCIDENTAL, SPECIAL, EXEMPLARY, OR
// CONSEQUENTIAL DAMAGES (INCLUDING, BUT NOT LIMITED TO, PROCUREMENT OF
// SUBSTITUTE GOODS OR SERVICES; LOSS OF USE, DATA, OR PROFITS; OR BUSINESS
// INTERRUPTION) HOWEVER CAUSED AND ON ANY THEORY OF LIABILITY, WHETHER IN
// CONTRACT, STRICT LIABILITY, OR TORT (INCLUDING NEGLIGENCE OR OTHERWISE)
// ARISING IN ANY WAY OUT OF THE USE OF THIS SOFTWARE, EVEN IF ADVISED OF THE
// POSSIBILITY OF SUCH DAMAGE.

// Dragonfly
//




vc_buf_size = 256;


wait_for_tail_credit = 0;

//
// Router architecture
//
vc_allocator = separable_input_first; 
sw_allocator = separable_input_first;
alloc_iters  = 1;

credit_delay   = 2;
routing_delay  = 0;
vc_alloc_delay = 1;
sw_alloc_delay = 1;
st_final_delay = 1;

input_speedup     = 1;
output_speedup    = 1;
internal_speedup  = 2.0;


warmup_periods = 3;
sim_count          = 1;

sample_period  = 10000;  


routing_function = dor;
num_vcs     = 2;

priority = none;
traffic       = uniform; 

injection_rate = 0.05;
packet_size = 1;
injection_rate_uses_flits = 1;

topology = mesh;

k  = 8;
n  = 2;

fer = 4;
ecc = link;

watch_out=-;
//watch_file = watch.txt;

ecc = link;

stats_out = examples/ecc_mesh88_config_1_0.050_link_4.m;

END Configuration File: examples/ecc_mesh88_config_1_0.050_link_4
2
Received nack credit for flit 576
Requeued flit 576
2
Received nack credit for flit 2861
Requeued flit 2861
2
Received nack credit for flit 3034
Requeued flit 3034
1
Received nack credit for flit 6089
Requeued flit 6089
1
Received nack credit for flit 8119
Requeued flit 8119
1
Received nack credit for flit 8820
Requeued flit 8820
3
Received nack credit for flit 10047
Requeued flit 10047
2
Received nack credit for flit 10848
Requeued flit 10848
7
Received nack credit for flit 14324
Requeued flit 14324
1
Received nack credit for flit 16023
Requeued flit 16023
1
Received nack credit for flit 18038
Requeued flit 18038
2
Received nack credit for flit 19524
Requeued flit 19524
2
Received nack credit for flit 19685
Requeued flit 19685
3
Received nack credit for flit 19884
Requeued flit 19884
7
Received nack credit for flit 22933
Requeued flit 22933
3
Received nack credit for flit 25354
Requeued flit 25354
5
Received nack credit for flit 25398
Requeued flit 25398
6
Received nack credit for flit 25566
Requeued flit 25566
5
Received nack credit for flit 26153
Requeued flit 26153
3
Received nack credit for flit 26528
Requeued flit 26528
1
Received nack credit for flit 27874
Requeued flit 27874
1
Received nack credit for flit 27982
Requeued flit 27982
3
Received nack credit for flit 29134
Requeued flit 29134
Class 0:
Packet latency average = 20.857
	minimum = 5
	maximum = 87
Network latency average = 20.857
	minimum = 5
	maximum = 87
Slowest packet = 8119
Flit latency average = 20.857
	minimum = 5
	maximum = 87
Slowest flit = 8119
Fragmentation average = 0
	minimum = 0
	maximum = 0
Injected packet rate average = 0.0501719
	minimum = 0.0455 (at node 45)
	maximum = 0.0542 (at node 20)
Accepted packet rate average = 0.0500562
	minimum = 0.0456 (at node 18)
	maximum = 0.0545 (at node 8)
Injected flit rate average = 0.0501719
	minimum = 0.0455 (at node 45)
	maximum = 0.0542 (at node 20)
Accepted flit rate average= 0.0500562
	minimum = 0.0456 (at node 18)
	maximum = 0.0545 (at node 8)
Injected packet length average = 1
Accepted packet length average = 1
Total in-flight flits = 74 (0 measured)
latency change    = 1
throughput change = 1
2
Received nack credit for flit 35831
Requeued flit 35831
4
Received nack credit for flit 37131
Requeued flit 37131
2
Received nack credit for flit 38462
Requeued flit 38462
2
Received nack credit for flit 39801
Requeued flit 39801
2
Received nack credit for flit 40190
Requeued flit 40190
7
Received nack credit for flit 40888
Requeued flit 40888
1
Received nack credit for flit 42397
Requeued flit 42397
7
2
Received nack credit for flit 44386
Requeued flit 44386
Received nack credit for flit 44308
Requeued flit 44308
5
Received nack credit for flit 45826
Requeued flit 45826
2
Received nack credit for flit 46102
Requeued flit 46102
2
Received nack credit for flit 46415
Requeued flit 46415
3
Received nack credit for flit 48005
Requeued flit 48005
1
Received nack credit for flit 48365
Requeued flit 48365
1
Received nack credit for flit 49079
Requeued flit 49079
1
Received nack credit for flit 50558
Requeued flit 50558
1
Received nack credit for flit 51360
Requeued flit 51360
1
Received nack credit for flit 52177
Requeued flit 52177
2
Received nack credit for flit 53279
Requeued flit 53279
5
Received nack credit for flit 53324
Requeued flit 53324
1
Received nack credit for flit 55615
Requeued flit 55615
1
Received nack credit for flit 59836
Requeued flit 59836
1
Received nack credit for flit 60400
Requeued flit 60400
6
Received nack credit for flit 60450
Requeued flit 60450
1
Received nack credit for flit 62132
Requeued flit 62132
3
Received nack credit for flit 62537
Requeued flit 62537
2
Received nack credit for flit 63415
Requeued flit 63415
Class 0:
Packet latency average = 20.8741
	minimum = 5
	maximum = 87
Network latency average = 20.8741
	minimum = 5
	maximum = 87
Slowest packet = 8119
Flit latency average = 20.8741
	minimum = 5
	maximum = 87
Slowest flit = 8119
Fragmentation average = 0
	minimum = 0
	maximum = 0
Injected packet rate average = 0.0500844
	minimum = 0.047 (at node 28)
	maximum = 0.0538 (at node 25)
Accepted packet rate average = 0.0500406
	minimum = 0.0467 (at node 36)
	maximum = 0.05285 (at node 51)
Injected flit rate average = 0.0500844
	minimum = 0.047 (at node 28)
	maximum = 0.0538 (at node 25)
Accepted flit rate average= 0.0500406
	minimum = 0.0467 (at node 36)
	maximum = 0.05285 (at node 51)
Injected packet length average = 1
Accepted packet length average = 1
Total in-flight flits = 56 (0 measured)
latency change    = 0.000819833
throughput change = 0.000312246
1
Received nack credit for flit 66235
Requeued flit 66235
4
Received nack credit for flit 69093
Requeued flit 69093
1
Received nack credit for flit 70657
Requeued flit 70657
5
Received nack credit for flit 70696
Requeued flit 70696
1
Received nack credit for flit 70804
Requeued flit 70804
1
Received nack credit for flit 71659
Requeued flit 71659
7
Received nack credit for flit 71671
Requeued flit 71671
3
Received nack credit for flit 74587
Requeued flit 74587
6
Received nack credit for flit 75026
Requeued flit 75026
7
Received nack credit for flit 82850
Requeued flit 82850
1
Received nack credit for flit 83242
Requeued flit 83242
1
Received nack credit for flit 84478
Requeued flit 84478
1
Received nack credit for flit 85177
Requeued flit 85177
2
Received nack credit for flit 85470
Requeued flit 85470
1
Received nack credit for flit 88787
Requeued flit 88787
2
Received nack credit for flit 89092
Requeued flit 89092
2
Received nack credit for flit 89163
Requeued flit 89163
3
Received nack credit for flit 90024
Requeued flit 90024
2
Received nack credit for flit 90676
Requeued flit 90676
1
Received nack credit for flit 92155
Requeued flit 92155
3
Received nack credit for flit 93682
Requeued flit 93682
Class 0:
Packet latency average = 20.9172
	minimum = 5
	maximum = 86
Network latency average = 20.9172
	minimum = 5
	maximum = 86
Slowest packet = 85177
Flit latency average = 20.9172
	minimum = 5
	maximum = 86
Slowest flit = 85177
Fragmentation average = 0
	minimum = 0
	maximum = 0
Injected packet rate average = 0.0498641
	minimum = 0.0446 (at node 14)
	maximum = 0.0541 (at node 17)
Accepted packet rate average = 0.0498453
	minimum = 0.0426 (at node 52)
	maximum = 0.0548 (at node 5)
Injected flit rate average = 0.0498641
	minimum = 0.0446 (at node 14)
	maximum = 0.0541 (at node 17)
Accepted flit rate average= 0.0498453
	minimum = 0.0426 (at node 52)
	maximum = 0.0548 (at node 5)
Injected packet length average = 1
Accepted packet length average = 1
Total in-flight flits = 68 (0 measured)
latency change    = 0.00206025
throughput change = 0.00391837
Warmed up ...Time used is 30000 cycles
5
Received nack credit for flit 96920
Requeued flit 96920
3
Received nack credit for flit 97298
Requeued flit 97298
1
Received nack credit for flit 97993
Requeued flit 97993
2
Received nack credit for flit 98496
Requeued flit 98496
3
Received nack credit for flit 99703
Requeued flit 99703
1
Received nack credit for flit 102153
Requeued flit 102153
6
Received nack credit for flit 103209
Requeued flit 103209
3
3
4
Received nack credit for flit 105532
Requeued flit 105532
Received nack credit for flit 105533
Requeued flit 105533
2
Received nack credit for flit 111710
Requeued flit 111710
3
Received nack credit for flit 112081
Requeued flit 112081
1
Received nack credit for flit 113692
Requeued flit 113692
2
Received nack credit for flit 114204
Requeued flit 114204
2
Received nack credit for flit 115139
Requeued flit 115139
2
Received nack credit for flit 115359
Requeued flit 115359
3
Received nack credit for flit 116668
Requeued flit 116668
1
Received nack credit for flit 117829
Requeued flit 117829
7
Received nack credit for flit 121543
Requeued flit 121543
2
Received nack credit for flit 122593
Requeued flit 122593
1
Received nack credit for flit 122883
Requeued flit 122883
6
Received nack credit for flit 125516
Requeued flit 125516
Class 0:
Packet latency average = 20.8491
	minimum = 5
	maximum = 81
Network latency average = 20.8491
	minimum = 5
	maximum = 81
Slowest packet = 114204
Flit latency average = 20.8526
	minimum = 5
	maximum = 81
Slowest flit = 114204
Fragmentation average = 0
	minimum = 0
	maximum = 0
Injected packet rate average = 0.0500828
	minimum = 0.0456 (at node 22)
	maximum = 0.0556 (at node 59)
Accepted packet rate average = 0.0500937
	minimum = 0.0444 (at node 10)
	maximum = 0.0554 (at node 4)
Injected flit rate average = 0.0500828
	minimum = 0.0456 (at node 22)
	maximum = 0.0556 (at node 59)
Accepted flit rate average= 0.0500937
	minimum = 0.0444 (at node 10)
	maximum = 0.0554 (at node 4)
Injected packet length average = 1
Accepted packet length average = 1
Total in-flight flits = 61 (61 measured)
latency change    = 0.00326905
throughput change = 0.00495945
2
Received nack credit for flit 130043
Requeued flit 130043
6
Received nack credit for flit 131042
Requeued flit 131042
4
Received nack credit for flit 134157
Requeued flit 134157
1
Received nack credit for flit 137881
Requeued flit 137881
1
Received nack credit for flit 138949
Requeued flit 138949
2
Received nack credit for flit 140256
Requeued flit 140256
1
Received nack credit for flit 141679
Requeued flit 141679
4
Received nack credit for flit 143655
Requeued flit 143655
1
Received nack credit for flit 144773
Requeued flit 144773
1
3
Received nack credit for flit 149571
Requeued flit 149571
Received nack credit for flit 149556
Requeued flit 149556
4
Received nack credit for flit 155318
Requeued flit 155318
1
Received nack credit for flit 157731
Requeued flit 157731
2
3
Received nack credit for flit 157960
Requeued flit 157960
Received nack credit for flit 157955
Requeued flit 157955
Class 0:
Packet latency average = 20.8464
	minimum = 5
	maximum = 81
Network latency average = 20.8464
	minimum = 5
	maximum = 81
Slowest packet = 114204
Flit latency average = 20.8481
	minimum = 5
	maximum = 81
Slowest flit = 114204
Fragmentation average = 0
	minimum = 0
	maximum = 0
Injected packet rate average = 0.0500086
	minimum = 0.0461 (at node 22)
	maximum = 0.0535 (at node 60)
Accepted packet rate average = 0.050007
	minimum = 0.0458 (at node 18)
	maximum = 0.0536 (at node 54)
Injected flit rate average = 0.0500086
	minimum = 0.0461 (at node 22)
	maximum = 0.0535 (at node 60)
Accepted flit rate average= 0.050007
	minimum = 0.0458 (at node 18)
	maximum = 0.0536 (at node 54)
Injected packet length average = 1
Accepted packet length average = 1
Total in-flight flits = 70 (70 measured)
latency change    = 0.000128656
throughput change = 0.00173413
2
Received nack credit for flit 160719
Requeued flit 160719
3
Received nack credit for flit 162269
Requeued flit 162269
1
Received nack credit for flit 162494
Requeued flit 162494
1
Received nack credit for flit 165564
Requeued flit 165564
1
Received nack credit for flit 166606
Requeued flit 166606
10
Received nack credit for flit 168733
Requeued flit 168733
2
Received nack credit for flit 169442
Requeued flit 169442
10
Received nack credit for flit 169797
Requeued flit 169797
2
Received nack credit for flit 170909
Requeued flit 170909
9
Received nack credit for flit 175528
Requeued flit 175528
1
Received nack credit for flit 178803
Requeued flit 178803
2
Received nack credit for flit 178966
Requeued flit 178966
9
Received nack credit for flit 180018
Requeued flit 180018
8
Received nack credit for flit 180470
Requeued flit 180470
5
Received nack credit for flit 182981
Requeued flit 182981
1
Received nack credit for flit 185453
Requeued flit 185453
2
Received nack credit for flit 191606
Requeued flit 191606
1
Received nack credit for flit 191643
Requeued flit 191643
Class 0:
Packet latency average = 20.8342
	minimum = 5
	maximum = 90
Network latency average = 20.8342
	minimum = 5
	maximum = 90
Slowest packet = 191643
Flit latency average = 20.8354
	minimum = 5
	maximum = 90
Slowest flit = 191643
Fragmentation average = 0
	minimum = 0
	maximum = 0
Injected packet rate average = 0.04995
	minimum = 0.0464667 (at node 29)
	maximum = 0.0523333 (at node 60)
Accepted packet rate average = 0.04995
	minimum = 0.0471 (at node 37)
	maximum = 0.0528333 (at node 28)
Injected flit rate average = 0.04995
	minimum = 0.0464667 (at node 29)
	maximum = 0.0523333 (at node 60)
Accepted flit rate average= 0.04995
	minimum = 0.0471 (at node 37)
	maximum = 0.0528333 (at node 28)
Injected packet length average = 1
Accepted packet length average = 1
Total in-flight flits = 68 (68 measured)
latency change    = 0.000585526
throughput change = 0.00114177
Draining all recorded packets ...
Draining remaining packets ...
Time taken is 60072 cycles
====== Overall Traffic Statistics ======
====== Traffic class 0 ======
Packet latency average = 20.8355 (1 samples)
	minimum = 5 (1 samples)
	maximum = 90 (1 samples)
Network latency average = 20.8355 (1 samples)
	minimum = 5 (1 samples)
	maximum = 90 (1 samples)
Flit latency average = 20.8382 (1 samples)
	minimum = 5 (1 samples)
	maximum = 90 (1 samples)
Fragmentation average = 0 (1 samples)
	minimum = 0 (1 samples)
	maximum = 0 (1 samples)
Injected packet rate average = 0.04995 (1 samples)
	minimum = 0.0464667 (1 samples)
	maximum = 0.0523333 (1 samples)
Accepted packet rate average = 0.04995 (1 samples)
	minimum = 0.0471 (1 samples)
	maximum = 0.0528333 (1 samples)
Injected flit rate average = 0.04995 (1 samples)
	minimum = 0.0464667 (1 samples)
	maximum = 0.0523333 (1 samples)
Accepted flit rate average = 0.04995 (1 samples)
	minimum = 0.0471 (1 samples)
	maximum = 0.0528333 (1 samples)
Injected packet size average = 1 (1 samples)
Accepted packet size average = 1 (1 samples)
Hops average = 6.24047 (1 samples)
Total run time 28.9384
