BEGIN Configuration File: examples/ecc_mesh88_config_1_0.650_link_4
// $Id$

// Copyright (c) 2007-2015, Trustees of The Leland Stanford Junior University
// All rights reserved.
//
// Redistribution and use in source and binary forms, with or without
// modification, are permitted provided that the following conditions are met:
//
// Redistributions of source code must retain the above copyright notice, this
// list of conditions and the following disclaimer.
// Redistributions in binary form must reproduce the above copyright notice,
// this list of conditions and the following disclaimer in the documentation
// and/or other materials provided with the distribution.
//
// THIS SOFTWARE IS PROVIDED BY THE COPYRIGHT HOLDERS AND CONTRIBUTORS "AS IS"
// AND ANY EXPRESS OR IMPLIED WARRANTIES, INCLUDING, BUT NOT LIMITED TO, THE
// IMPLIED WARRANTIES OF MERCHANTABILITY AND FITNESS FOR A PARTICULAR PURPOSE
// ARE DISCLAIMED. IN NO EVENT SHALL THE COPYRIGHT OWNER OR CONTRIBUTORS BE
// LIABLE FOR ANY DIRECT, INDIRECT, INCIDENTAL, SPECIAL, EXEMPLARY, OR
// CONSEQUENTIAL DAMAGES (INCLUDING, BUT NOT LIMITED TO, PROCUREMENT OF
// SUBSTITUTE GOODS OR SERVICES; LOSS OF USE, DATA, OR PROFITS; OR BUSINESS
// INTERRUPTION) HOWEVER CAUSED AND ON ANY THEORY OF LIABILITY, WHETHER IN
// CONTRACT, STRICT LIABILITY, OR TORT (INCLUDING NEGLIGENCE OR OTHERWISE)
// ARISING IN ANY WAY OUT OF THE USE OF THIS SOFTWARE, EVEN IF ADVISED OF THE
// POSSIBILITY OF SUCH DAMAGE.

// Dragonfly
//




vc_buf_size = 256;


wait_for_tail_credit = 0;

//
// Router architecture
//
vc_allocator = separable_input_first; 
sw_allocator = separable_input_first;
alloc_iters  = 1;

credit_delay   = 2;
routing_delay  = 0;
vc_alloc_delay = 1;
sw_alloc_delay = 1;
st_final_delay = 1;

input_speedup     = 1;
output_speedup    = 1;
internal_speedup  = 2.0;


warmup_periods = 3;
sim_count          = 1;

sample_period  = 10000;  


routing_function = dor;
num_vcs     = 2;

priority = none;
traffic       = uniform; 

injection_rate = 0.65;
packet_size = 1;
injection_rate_uses_flits = 1;

topology = mesh;

k  = 8;
n  = 2;

fer = 4;
ecc = link;

watch_out=-;
//watch_file = watch.txt;

ecc = link;

stats_out = examples/ecc_mesh88_config_1_0.650_link_4.m;

END Configuration File: examples/ecc_mesh88_config_1_0.650_link_4
2
Received nack credit for flit 941
Requeued flit 941
1
Received nack credit for flit 1319
Requeued flit 1319
5
Received nack credit for flit 1211
Requeued flit 1211
6
Received nack credit for flit 2157
Requeued flit 2157
5
Received nack credit for flit 3023
Requeued flit 3023
1
Received nack credit for flit 5650
Requeued flit 5650
3
Received nack credit for flit 7151
Requeued flit 7151
5
Received nack credit for flit 11796
Requeued flit 11796
1
Received nack credit for flit 15633
Requeued flit 15633
2
Received nack credit for flit 16361
Requeued flit 16361
4
Received nack credit for flit 17022
Requeued flit 17022
6
Received nack credit for flit 13964
Requeued flit 13964
2
Received nack credit for flit 21764
Requeued flit 21764
1
Received nack credit for flit 18677
Requeued flit 18677
1
Received nack credit for flit 27816
Requeued flit 27816
1
Received nack credit for flit 28961
Requeued flit 28961
7
Received nack credit for flit 29487
Requeued flit 29487
9
Received nack credit for flit 22616
Requeued flit 22616
1
Received nack credit for flit 38924
Requeued flit 38924
1
Received nack credit for flit 39128
Requeued flit 39128
5
Received nack credit for flit 35614
Requeued flit 35614
3
Received nack credit for flit 37056
Requeued flit 37056
3
Received nack credit for flit 35756
Requeued flit 35756
4
Received nack credit for flit 40161
Requeued flit 40161
1
Received nack credit for flit 49958
Requeued flit 49958
3
Received nack credit for flit 54997
Requeued flit 54997
4
1
Received nack credit for flit 40720
Requeued flit 40720
Received nack credit for flit 47052
Requeued flit 47052
2
Received nack credit for flit 57619
Requeued flit 57619
1
Received nack credit for flit 50158
Requeued flit 50158
1
Received nack credit for flit 63858
Requeued flit 63858
2
1
Received nack credit for flit 64873
Requeued flit 64873
Received nack credit for flit 57927
Requeued flit 57927
3
Received nack credit for flit 52111
Requeued flit 52111
3
Received nack credit for flit 56122
Requeued flit 56122
5
Received nack credit for flit 50744
Requeued flit 50744
1
Received nack credit for flit 68970
Requeued flit 68970
1
Received nack credit for flit 80147
Requeued flit 80147
7
Received nack credit for flit 49139
Requeued flit 49139
2
Received nack credit for flit 81269
Requeued flit 81269
3
Received nack credit for flit 80598
Requeued flit 80598
8
Received nack credit for flit 53716
Requeued flit 53716
7
Received nack credit for flit 56731
Requeued flit 56731
8
Received nack credit for flit 58206
Requeued flit 58206
2
Received nack credit for flit 90060
Requeued flit 90060
2
Received nack credit for flit 92124
Requeued flit 92124
1
Received nack credit for flit 92975
Requeued flit 92975
1
Received nack credit for flit 93546
Requeued flit 93546
3
Received nack credit for flit 79109
Requeued flit 79109
1
Received nack credit for flit 96661
Requeued flit 96661
3
1
Received nack credit for flit 82261
Requeued flit 82261
Received nack credit for flit 102767
Requeued flit 102767
1
Received nack credit for flit 91984
Requeued flit 91984
4
Received nack credit for flit 85142
Requeued flit 85142
4
Received nack credit for flit 78819
Requeued flit 78819
2
5
Received nack credit for flit 89076
Requeued flit 89076
Received nack credit for flit 98408
Requeued flit 98408
2
Received nack credit for flit 92097
Requeued flit 92097
4
Received nack credit for flit 84900
Requeued flit 84900
1
Received nack credit for flit 122228
Requeued flit 122228
2
Received nack credit for flit 96243
Requeued flit 96243
2
Received nack credit for flit 131620
Requeued flit 131620
1
Received nack credit for flit 131482
Requeued flit 131482
8
Received nack credit for flit 99087
Requeued flit 99087
1
Received nack credit for flit 134049
Requeued flit 134049
3
Received nack credit for flit 135608
Requeued flit 135608
2
Received nack credit for flit 138268
Requeued flit 138268
4
Received nack credit for flit 138827
Requeued flit 138827
4
2
Received nack credit for flit 123503
Requeued flit 123503
Received nack credit for flit 119447
Requeued flit 119447
1
Received nack credit for flit 139853
Requeued flit 139853
4
Received nack credit for flit 130266
Requeued flit 130266
4
Received nack credit for flit 106897
Requeued flit 106897
2
Received nack credit for flit 144195
Requeued flit 144195
4
2
Received nack credit for flit 143761
Requeued flit 143761
Received nack credit for flit 144441
Requeued flit 144441
6
Received nack credit for flit 108569
Requeued flit 108569
3
1
Received nack credit for flit 129911
Requeued flit 129911
Received nack credit for flit 126739
Requeued flit 126739
1
Received nack credit for flit 149824
Requeued flit 149824
1
Received nack credit for flit 150283
Requeued flit 150283
1
5
Received nack credit for flit 137445
Requeued flit 137445
Received nack credit for flit 128711
Requeued flit 128711
1
Received nack credit for flit 157204
Requeued flit 157204
5
Received nack credit for flit 133453
Requeued flit 133453
2
Received nack credit for flit 164024
Requeued flit 164024
4
Received nack credit for flit 119268
Requeued flit 119268
10
Received nack credit for flit 101578
Requeued flit 101578
1
Received nack credit for flit 165405
Requeued flit 165405
3
5
Received nack credit for flit 140630
Requeued flit 140630
Received nack credit for flit 131158
Requeued flit 131158
1
Received nack credit for flit 171438
Requeued flit 171438
2
3
Received nack credit for flit 173086
Requeued flit 173086
Received nack credit for flit 133222
Requeued flit 133222
3
2
Received nack credit for flit 132720
Requeued flit 132720
Received nack credit for flit 152896
Requeued flit 152896
1
Received nack credit for flit 159073
Requeued flit 159073
4
Received nack credit for flit 125339
Requeued flit 125339
1
Received nack credit for flit 183923
Requeued flit 183923
6
Received nack credit for flit 159211
Requeued flit 159211
3
Received nack credit for flit 157759
Requeued flit 157759
1
Received nack credit for flit 188867
Requeued flit 188867
1
Received nack credit for flit 169642
Requeued flit 169642
1
Received nack credit for flit 190614
Requeued flit 190614
2
Received nack credit for flit 192272
Requeued flit 192272
6
Received nack credit for flit 157273
Requeued flit 157273
1
Received nack credit for flit 196004
Requeued flit 196004
6
Received nack credit for flit 169063
Requeued flit 169063
5
Received nack credit for flit 186060
Requeued flit 186060
1
Received nack credit for flit 199315
Requeued flit 199315
6
Received nack credit for flit 172635
Requeued flit 172635
1
Received nack credit for flit 189149
Requeued flit 189149
1
Received nack credit for flit 201755
Requeued flit 201755
4
Received nack credit for flit 194055
Requeued flit 194055
5
Received nack credit for flit 167385
Requeued flit 167385
10
Received nack credit for flit 125930
Requeued flit 125930
1
Received nack credit for flit 213624
Requeued flit 213624
1
2
5
8
Received nack credit for flit 190335
Requeued flit 190335
Received nack credit for flit 214815
Requeued flit 214815
Received nack credit for flit 154785
Requeued flit 154785
Received nack credit for flit 183685
Requeued flit 183685
7
Received nack credit for flit 170209
Requeued flit 170209
2
Received nack credit for flit 195962
Requeued flit 195962
6
Received nack credit for flit 179669
Requeued flit 179669
5
Received nack credit for flit 147317
Requeued flit 147317
3
Received nack credit for flit 173695
Requeued flit 173695
1
Received nack credit for flit 215909
Requeued flit 215909
6
Received nack credit for flit 154954
Requeued flit 154954
3
Received nack credit for flit 193510
Requeued flit 193510
2
Received nack credit for flit 207091
Requeued flit 207091
1
Received nack credit for flit 236277
Requeued flit 236277
11
Received nack credit for flit 141531
Requeued flit 141531
3
2
Received nack credit for flit 194974
Requeued flit 194974
Received nack credit for flit 220089
Requeued flit 220089
2
Received nack credit for flit 220465
Requeued flit 220465
10
Received nack credit for flit 148076
Requeued flit 148076
3
Received nack credit for flit 217093
Requeued flit 217093
8
Received nack credit for flit 201250
Requeued flit 201250
2
Received nack credit for flit 212636
Requeued flit 212636
5
Received nack credit for flit 247059
Requeued flit 247059
2
3
Received nack credit for flit 228274
Requeued flit 228274
Received nack credit for flit 231102
Requeued flit 231102
2
1
8
Received nack credit for flit 232025
Requeued flit 232025
Received nack credit for flit 158245
Requeued flit 158245
Received nack credit for flit 251258
Requeued flit 251258
1
Received nack credit for flit 233934
Requeued flit 233934
1
Received nack credit for flit 213457
Requeued flit 213457
1
Received nack credit for flit 255646
Requeued flit 255646
4
Received nack credit for flit 237143
Requeued flit 237143
1
Received nack credit for flit 241613
Requeued flit 241613
4
Received nack credit for flit 243695
Requeued flit 243695
5
Received nack credit for flit 262232
Requeued flit 262232
1
Received nack credit for flit 265980
Requeued flit 265980
7
1
Received nack credit for flit 181713
Requeued flit 181713
Received nack credit for flit 226103
Requeued flit 226103
4
Received nack credit for flit 183759
Requeued flit 183759
1
Received nack credit for flit 257607
Requeued flit 257607
2
Received nack credit for flit 278626
Requeued flit 278626
3
Received nack credit for flit 260861
Requeued flit 260861
3
Received nack credit for flit 277529
Requeued flit 277529
1
Received nack credit for flit 233759
Requeued flit 233759
6
Received nack credit for flit 191153
Requeued flit 191153
3
Received nack credit for flit 246647
Requeued flit 246647
3
Received nack credit for flit 290269
Requeued flit 290269
3
Received nack credit for flit 248690
Requeued flit 248690
1
Received nack credit for flit 294869
Requeued flit 294869
4
Received nack credit for flit 252695
Requeued flit 252695
1
Received nack credit for flit 295771
Requeued flit 295771
2
Received nack credit for flit 279913
Requeued flit 279913
1
Received nack credit for flit 281393
Requeued flit 281393
2
Received nack credit for flit 282247
Requeued flit 282247
1
Received nack credit for flit 297989
Requeued flit 297989
5
Received nack credit for flit 268471
Requeued flit 268471
3
Received nack credit for flit 222524
Requeued flit 222524
2
Received nack credit for flit 283722
Requeued flit 283722
4
Received nack credit for flit 206359
Requeued flit 206359
2
Received nack credit for flit 281426
Requeued flit 281426
5
Received nack credit for flit 268300
Requeued flit 268300
6
Received nack credit for flit 290285
Requeued flit 290285
2
Received nack credit for flit 237897
Requeued flit 237897
1
Received nack credit for flit 314647
Requeued flit 314647
4
Received nack credit for flit 223713
Requeued flit 223713
4
Received nack credit for flit 227788
Requeued flit 227788
2
Received nack credit for flit 319245
Requeued flit 319245
1
Received nack credit for flit 314845
Requeued flit 314845
5
Received nack credit for flit 300828
Requeued flit 300828
2
Received nack credit for flit 306492
Requeued flit 306492
4
Received nack credit for flit 322923
Requeued flit 322923
3
Received nack credit for flit 287580
Requeued flit 287580
3
Received nack credit for flit 284059
Requeued flit 284059
5
Received nack credit for flit 298439
Requeued flit 298439
1
Received nack credit for flit 330637
Requeued flit 330637
3
Received nack credit for flit 283637
Requeued flit 283637
9
Received nack credit for flit 213184
Requeued flit 213184
10
Received nack credit for flit 201287
Requeued flit 201287
7
Received nack credit for flit 219690
Requeued flit 219690
1
Received nack credit for flit 298320
Requeued flit 298320
1
7
Received nack credit for flit 331319
Requeued flit 331319
Received nack credit for flit 228343
Requeued flit 228343
1
Received nack credit for flit 339785
Requeued flit 339785
7
Received nack credit for flit 228732
Requeued flit 228732
3
Received nack credit for flit 338081
Requeued flit 338081
6
Received nack credit for flit 223158
Requeued flit 223158
1
Received nack credit for flit 301370
Requeued flit 301370
1
Received nack credit for flit 349136
Requeued flit 349136
4
Received nack credit for flit 348450
Requeued flit 348450
2
Received nack credit for flit 275356
Requeued flit 275356
2
Received nack credit for flit 316718
Requeued flit 316718
7
Received nack credit for flit 303027
Requeued flit 303027
7
Received nack credit for flit 324077
Requeued flit 324077
2
Received nack credit for flit 342471
Requeued flit 342471
7
Received nack credit for flit 240525
Requeued flit 240525
6
Received nack credit for flit 242371
Requeued flit 242371
1
Received nack credit for flit 362423
Requeued flit 362423
6
Received nack credit for flit 324276
Requeued flit 324276
10
Received nack credit for flit 229878
Requeued flit 229878
2
Received nack credit for flit 380121
Requeued flit 380121
2
Received nack credit for flit 361242
Requeued flit 361242
Class 0:
Packet latency average = 882.191
	minimum = 5
	maximum = 4619
Network latency average = 874.991
	minimum = 5
	maximum = 4619
Slowest packet = 219176
Flit latency average = 874.991
	minimum = 5
	maximum = 4619
Slowest flit = 219176
Fragmentation average = 0
	minimum = 0
	maximum = 0
Injected packet rate average = 0.602812
	minimum = 0.5149 (at node 1)
	maximum = 0.6573 (at node 45)
Accepted packet rate average = 0.51077
	minimum = 0.4907 (at node 36)
	maximum = 0.5269 (at node 7)
Injected flit rate average = 0.602812
	minimum = 0.5149 (at node 1)
	maximum = 0.6573 (at node 45)
Accepted flit rate average= 0.51077
	minimum = 0.4907 (at node 36)
	maximum = 0.5269 (at node 7)
Injected packet length average = 1
Accepted packet length average = 1
Total in-flight flits = 58928 (0 measured)
latency change    = 1
throughput change = 1
Average latency for class 0 exceeded 500 cycles. Aborting simulation.
Too many sample periods needed to converge
Simulation unstable, ending ...
Total run time 56.0799
