BEGIN Configuration File: examples/ecc_mesh88_config_1_0.250_link_4
// $Id$

// Copyright (c) 2007-2015, Trustees of The Leland Stanford Junior University
// All rights reserved.
//
// Redistribution and use in source and binary forms, with or without
// modification, are permitted provided that the following conditions are met:
//
// Redistributions of source code must retain the above copyright notice, this
// list of conditions and the following disclaimer.
// Redistributions in binary form must reproduce the above copyright notice,
// this list of conditions and the following disclaimer in the documentation
// and/or other materials provided with the distribution.
//
// THIS SOFTWARE IS PROVIDED BY THE COPYRIGHT HOLDERS AND CONTRIBUTORS "AS IS"
// AND ANY EXPRESS OR IMPLIED WARRANTIES, INCLUDING, BUT NOT LIMITED TO, THE
// IMPLIED WARRANTIES OF MERCHANTABILITY AND FITNESS FOR A PARTICULAR PURPOSE
// ARE DISCLAIMED. IN NO EVENT SHALL THE COPYRIGHT OWNER OR CONTRIBUTORS BE
// LIABLE FOR ANY DIRECT, INDIRECT, INCIDENTAL, SPECIAL, EXEMPLARY, OR
// CONSEQUENTIAL DAMAGES (INCLUDING, BUT NOT LIMITED TO, PROCUREMENT OF
// SUBSTITUTE GOODS OR SERVICES; LOSS OF USE, DATA, OR PROFITS; OR BUSINESS
// INTERRUPTION) HOWEVER CAUSED AND ON ANY THEORY OF LIABILITY, WHETHER IN
// CONTRACT, STRICT LIABILITY, OR TORT (INCLUDING NEGLIGENCE OR OTHERWISE)
// ARISING IN ANY WAY OUT OF THE USE OF THIS SOFTWARE, EVEN IF ADVISED OF THE
// POSSIBILITY OF SUCH DAMAGE.

// Dragonfly
//




vc_buf_size = 256;


wait_for_tail_credit = 0;

//
// Router architecture
//
vc_allocator = separable_input_first; 
sw_allocator = separable_input_first;
alloc_iters  = 1;

credit_delay   = 2;
routing_delay  = 0;
vc_alloc_delay = 1;
sw_alloc_delay = 1;
st_final_delay = 1;

input_speedup     = 1;
output_speedup    = 1;
internal_speedup  = 2.0;


warmup_periods = 3;
sim_count          = 1;

sample_period  = 10000;  


routing_function = dor;
num_vcs     = 2;

priority = none;
traffic       = uniform; 

injection_rate = 0.25;
packet_size = 1;
injection_rate_uses_flits = 1;

topology = mesh;

k  = 8;
n  = 2;

fer = 4;
ecc = link;

watch_out=-;
//watch_file = watch.txt;

ecc = link;

stats_out = examples/ecc_mesh88_config_1_0.250_link_4.m;

END Configuration File: examples/ecc_mesh88_config_1_0.250_link_4
6
3
Received nack credit for flit 599
Requeued flit 599
Received nack credit for flit 430
Requeued flit 430
1
Received nack credit for flit 2072
Requeued flit 2072
5
Received nack credit for flit 3522
Requeued flit 3522
5
Received nack credit for flit 4866
Requeued flit 4866
1
Received nack credit for flit 6901
Requeued flit 6901
2
Received nack credit for flit 6958
Requeued flit 6958
3
Received nack credit for flit 9038
Requeued flit 9038
1
Received nack credit for flit 10386
Requeued flit 10386
6
Received nack credit for flit 10478
Requeued flit 10478
1
Received nack credit for flit 13769
Requeued flit 13769
1
Received nack credit for flit 14840
Requeued flit 14840
3
Received nack credit for flit 15112
Requeued flit 15112
3
Received nack credit for flit 18584
Requeued flit 18584
6
Received nack credit for flit 20862
Requeued flit 20862
2
Received nack credit for flit 24119
Requeued flit 24119
3
7
Received nack credit for flit 26009
Requeued flit 26009
Received nack credit for flit 25865
Requeued flit 25865
4
Received nack credit for flit 26254
Requeued flit 26254
7
Received nack credit for flit 26245
Requeued flit 26245
1
Received nack credit for flit 30624
Requeued flit 30624
4
Received nack credit for flit 30631
Requeued flit 30631
6
Received nack credit for flit 31643
Requeued flit 31643
4
Received nack credit for flit 31832
Requeued flit 31832
2
Received nack credit for flit 37669
Requeued flit 37669
3
Received nack credit for flit 38610
Requeued flit 38610
5
Received nack credit for flit 39138
Requeued flit 39138
7
Received nack credit for flit 39947
Requeued flit 39947
4
Received nack credit for flit 40712
Requeued flit 40712
11
2
Received nack credit for flit 43127
Requeued flit 43127
Received nack credit for flit 43621
Requeued flit 43621
3
Received nack credit for flit 44319
Requeued flit 44319
5
Received nack credit for flit 44844
Requeued flit 44844
3
1
Received nack credit for flit 46318
Requeued flit 46318
Received nack credit for flit 46433
Requeued flit 46433
1
Received nack credit for flit 47692
Requeued flit 47692
1
Received nack credit for flit 49609
Requeued flit 49609
1
Received nack credit for flit 52978
Requeued flit 52978
1
Received nack credit for flit 54768
Requeued flit 54768
1
Received nack credit for flit 55542
Requeued flit 55542
3
Received nack credit for flit 55566
Requeued flit 55566
9
Received nack credit for flit 60374
Requeued flit 60374
1
Received nack credit for flit 61573
Requeued flit 61573
2
Received nack credit for flit 62796
Requeued flit 62796
6
Received nack credit for flit 63036
Requeued flit 63036
1
Received nack credit for flit 63771
Requeued flit 63771
2
Received nack credit for flit 64660
Requeued flit 64660
1
Received nack credit for flit 66827
Requeued flit 66827
3
Received nack credit for flit 67500
Requeued flit 67500
1
Received nack credit for flit 70043
Requeued flit 70043
1
Received nack credit for flit 70492
Requeued flit 70492
3
Received nack credit for flit 70917
Requeued flit 70917
3
Received nack credit for flit 74646
Requeued flit 74646
4
Received nack credit for flit 74993
Requeued flit 74993
2
Received nack credit for flit 75604
Requeued flit 75604
1
Received nack credit for flit 79664
Requeued flit 79664
3
Received nack credit for flit 80706
Requeued flit 80706
2
Received nack credit for flit 91131
Requeued flit 91131
3
Received nack credit for flit 91747
Requeued flit 91747
4
Received nack credit for flit 92418
Requeued flit 92418
4
Received nack credit for flit 94570
Requeued flit 94570
3
Received nack credit for flit 96270
Requeued flit 96270
1
Received nack credit for flit 96484
Requeued flit 96484
3
Received nack credit for flit 96969
Requeued flit 96969
4
Received nack credit for flit 98113
Requeued flit 98113
3
Received nack credit for flit 98830
Requeued flit 98830
5
4
Received nack credit for flit 98910
Requeued flit 98910
Received nack credit for flit 98984
Requeued flit 98984
1
Received nack credit for flit 101433
Requeued flit 101433
4
Received nack credit for flit 102500
Requeued flit 102500
3
Received nack credit for flit 102753
Requeued flit 102753
1
Received nack credit for flit 107490
Requeued flit 107490
8
Received nack credit for flit 107246
Requeued flit 107246
1
Received nack credit for flit 112419
Requeued flit 112419
5
Received nack credit for flit 116083
Requeued flit 116083
2
Received nack credit for flit 117153
Requeued flit 117153
1
Received nack credit for flit 118782
Requeued flit 118782
1
Received nack credit for flit 118877
Requeued flit 118877
2
Received nack credit for flit 119652
Requeued flit 119652
1
Received nack credit for flit 119815
Requeued flit 119815
2
Received nack credit for flit 122281
Requeued flit 122281
3
Received nack credit for flit 124100
Requeued flit 124100
1
Received nack credit for flit 125547
Requeued flit 125547
1
Received nack credit for flit 126875
Requeued flit 126875
4
Received nack credit for flit 126954
Requeued flit 126954
1
Received nack credit for flit 127912
Requeued flit 127912
2
Received nack credit for flit 128930
Requeued flit 128930
4
Received nack credit for flit 133577
Requeued flit 133577
3
Received nack credit for flit 134018
Requeued flit 134018
4
Received nack credit for flit 137028
Requeued flit 137028
2
Received nack credit for flit 137998
Requeued flit 137998
6
Received nack credit for flit 140657
Requeued flit 140657
1
Received nack credit for flit 141458
Requeued flit 141458
3
Received nack credit for flit 141777
Requeued flit 141777
1
Received nack credit for flit 143465
Requeued flit 143465
4
Received nack credit for flit 144555
Requeued flit 144555
2
Received nack credit for flit 145276
Requeued flit 145276
3
Received nack credit for flit 146045
Requeued flit 146045
5
1
Received nack credit for flit 146143
Requeued flit 146143
3
Received nack credit for flit 146393
Requeued flit 146393
Received nack credit for flit 146312
Requeued flit 146312
6
Received nack credit for flit 146644
Requeued flit 146644
3
Received nack credit for flit 147186
Requeued flit 147186
2
Received nack credit for flit 148332
Requeued flit 148332
7
Received nack credit for flit 153021
Requeued flit 153021
10
Received nack credit for flit 153928
Requeued flit 153928
7
Class 0:
Packet latency average = 21.6844
	minimum = 5
	maximum = 58
Network latency average = 21.6844
	minimum = 5
	maximum = 58
Slowest packet = 33560
Flit latency average = 21.6844
	minimum = 5
	maximum = 58
Slowest flit = 33560
Fragmentation average = 0
	minimum = 0
	maximum = 0
Injected packet rate average = 0.250017
	minimum = 0.2378 (at node 25)
	maximum = 0.2631 (at node 19)
Accepted packet rate average = 0.249481
	minimum = 0.2402 (at node 33)
	maximum = 0.2616 (at node 1)
Injected flit rate average = 0.250017
	minimum = 0.2378 (at node 25)
	maximum = 0.2631 (at node 19)
Accepted flit rate average= 0.249481
	minimum = 0.2402 (at node 33)
	maximum = 0.2616 (at node 1)
Injected packet length average = 1
Accepted packet length average = 1
Total in-flight flits = 343 (0 measured)
latency change    = 1
throughput change = 1
Received nack credit for flit 159583
Requeued flit 159583
5
Received nack credit for flit 161043
Requeued flit 161043
2
Received nack credit for flit 163817
Requeued flit 163817
2
Received nack credit for flit 164665
Requeued flit 164665
5
Received nack credit for flit 164879
Requeued flit 164879
3
Received nack credit for flit 167049
Requeued flit 167049
3
3
Received nack credit for flit 171073
Requeued flit 171073
Received nack credit for flit 171159
Requeued flit 171159
3
Received nack credit for flit 171281
Requeued flit 171281
1
Received nack credit for flit 171553
Requeued flit 171553
5
Received nack credit for flit 175331
Requeued flit 175331
5
Received nack credit for flit 179497
Requeued flit 179497
1
Received nack credit for flit 180777
Requeued flit 180777
4
Received nack credit for flit 180938
Requeued flit 180938
1
Received nack credit for flit 181540
Requeued flit 181540
1
Received nack credit for flit 181891
Requeued flit 181891
1
Received nack credit for flit 182663
Requeued flit 182663
3
Received nack credit for flit 185288
Requeued flit 185288
2
Received nack credit for flit 185854
Requeued flit 185854
3
Received nack credit for flit 189795
Requeued flit 189795
1
Received nack credit for flit 191026
Requeued flit 191026
8
Received nack credit for flit 197543
Requeued flit 197543
3
Received nack credit for flit 199386
Requeued flit 199386
3
1
Received nack credit for flit 203554
Requeued flit 203554
Received nack credit for flit 203292
Requeued flit 203292
2
Received nack credit for flit 204792
Requeued flit 204792
3
Received nack credit for flit 205277
Requeued flit 205277
5
Received nack credit for flit 205440
Requeued flit 205440
1
Received nack credit for flit 209887
Requeued flit 209887
13
Received nack credit for flit 212530
Requeued flit 212530
1
Received nack credit for flit 215110
Requeued flit 215110
3
Received nack credit for flit 215776
Requeued flit 215776
5
Received nack credit for flit 215861
Requeued flit 215861
4
Received nack credit for flit 221553
Requeued flit 221553
1
Received nack credit for flit 221832
Requeued flit 221832
1
Received nack credit for flit 223279
Requeued flit 223279
4
Received nack credit for flit 223401
Requeued flit 223401
1
Received nack credit for flit 225237
Requeued flit 225237
3
Received nack credit for flit 225569
Requeued flit 225569
2
Received nack credit for flit 227831
Requeued flit 227831
5
Received nack credit for flit 230900
Requeued flit 230900
3
Received nack credit for flit 231159
Requeued flit 231159
3
Received nack credit for flit 231869
Requeued flit 231869
1
Received nack credit for flit 233972
Requeued flit 233972
4
Received nack credit for flit 234014
Requeued flit 234014
2
Received nack credit for flit 234690
Requeued flit 234690
2
Received nack credit for flit 235513
Requeued flit 235513
2
Received nack credit for flit 240380
Requeued flit 240380
2
Received nack credit for flit 241132
Requeued flit 241132
2
Received nack credit for flit 241246
Requeued flit 241246
2
Received nack credit for flit 241780
Requeued flit 241780
4
Received nack credit for flit 243885
Requeued flit 243885
1
3
Received nack credit for flit 245148
Requeued flit 245148
Received nack credit for flit 245223
Requeued flit 245223
2
Received nack credit for flit 246893
Requeued flit 246893
1
Received nack credit for flit 247322
Requeued flit 247322
2
Received nack credit for flit 248405
Requeued flit 248405
1
Received nack credit for flit 248901
Requeued flit 248901
1
Received nack credit for flit 250002
Requeued flit 250002
4
Received nack credit for flit 255415
Requeued flit 255415
4
Received nack credit for flit 260479
Requeued flit 260479
5
Received nack credit for flit 262576
Requeued flit 262576
3
Received nack credit for flit 264170
Requeued flit 264170
1
Received nack credit for flit 265641
Requeued flit 265641
1
Received nack credit for flit 270179
Requeued flit 270179
1
Received nack credit for flit 271220
Requeued flit 271220
1
Received nack credit for flit 273088
Requeued flit 273088
1
Received nack credit for flit 273697
Requeued flit 273697
5
Received nack credit for flit 274796
Requeued flit 274796
3
Received nack credit for flit 277318
Requeued flit 277318
7
Received nack credit for flit 278909
Requeued flit 278909
3
Received nack credit for flit 284567
Requeued flit 284567
3
Received nack credit for flit 288480
Requeued flit 288480
1
Received nack credit for flit 289658
Requeued flit 289658
6
Received nack credit for flit 292937
Requeued flit 292937
1
Received nack credit for flit 293413
Requeued flit 293413
8
Received nack credit for flit 293718
Requeued flit 293718
1
Received nack credit for flit 294883
Requeued flit 294883
7
8
Received nack credit for flit 294987
Requeued flit 294987
Received nack credit for flit 294935
Requeued flit 294935
5
Received nack credit for flit 296368
Requeued flit 296368
1
Received nack credit for flit 296831
Requeued flit 296831
1
Received nack credit for flit 297724
Requeued flit 297724
2
Received nack credit for flit 298725
Requeued flit 298725
5
Received nack credit for flit 302603
Requeued flit 302603
3
Received nack credit for flit 303945
Requeued flit 303945
4
Received nack credit for flit 306825
Requeued flit 306825
8
Received nack credit for flit 308973
Requeued flit 308973
2
Received nack credit for flit 309338
Requeued flit 309338
4
Received nack credit for flit 310955
Requeued flit 310955
1
Received nack credit for flit 314494
Requeued flit 314494
5
Received nack credit for flit 317157
Requeued flit 317157
Class 0:
Packet latency average = 21.6799
	minimum = 5
	maximum = 58
Network latency average = 21.6799
	minimum = 5
	maximum = 58
Slowest packet = 33560
Flit latency average = 21.6799
	minimum = 5
	maximum = 58
Slowest flit = 33560
Fragmentation average = 0
	minimum = 0
	maximum = 0
Injected packet rate average = 0.24972
	minimum = 0.24165 (at node 29)
	maximum = 0.25655 (at node 19)
Accepted packet rate average = 0.249425
	minimum = 0.2408 (at node 21)
	maximum = 0.2583 (at node 28)
Injected flit rate average = 0.24972
	minimum = 0.24165 (at node 29)
	maximum = 0.25655 (at node 19)
Accepted flit rate average= 0.249425
	minimum = 0.2408 (at node 21)
	maximum = 0.2583 (at node 28)
Injected packet length average = 1
Accepted packet length average = 1
Total in-flight flits = 377 (0 measured)
latency change    = 0.000208149
throughput change = 0.000225519
2
Received nack credit for flit 322821
Requeued flit 322821
1
Received nack credit for flit 323337
Requeued flit 323337
2
Received nack credit for flit 324329
Requeued flit 324329
2
Received nack credit for flit 324885
Requeued flit 324885
4
Received nack credit for flit 325938
Requeued flit 325938
4
Received nack credit for flit 329663
Requeued flit 329663
1
Received nack credit for flit 330425
Requeued flit 330425
2
Received nack credit for flit 332366
Requeued flit 332366
1
Received nack credit for flit 333775
Requeued flit 333775
1
Received nack credit for flit 335426
Requeued flit 335426
4
Received nack credit for flit 335695
Requeued flit 335695
1
Received nack credit for flit 336214
Requeued flit 336214
4
Received nack credit for flit 336700
Requeued flit 336700
1
Received nack credit for flit 338900
Requeued flit 338900
4
Received nack credit for flit 339133
Requeued flit 339133
5
Received nack credit for flit 342787
Requeued flit 342787
2
Received nack credit for flit 347860
Requeued flit 347860
1
Received nack credit for flit 349195
Requeued flit 349195
1
Received nack credit for flit 350562
Requeued flit 350562
4
Received nack credit for flit 351116
Requeued flit 351116
5
Received nack credit for flit 353421
Requeued flit 353421
1
Received nack credit for flit 356845
Requeued flit 356845
1
Received nack credit for flit 357176
Requeued flit 357176
5
Received nack credit for flit 361844
Requeued flit 361844
2
2
Received nack credit for flit 362151
Requeued flit 362151
1
Received nack credit for flit 362209
Requeued flit 362209
Received nack credit for flit 362268
Requeued flit 362268
9
1
Received nack credit for flit 362730
Requeued flit 362730
Received nack credit for flit 363203
Requeued flit 363203
2
Received nack credit for flit 364796
Requeued flit 364796
6
Received nack credit for flit 368090
Requeued flit 368090
3
Received nack credit for flit 369092
Requeued flit 369092
5
Received nack credit for flit 369817
Requeued flit 369817
3
Received nack credit for flit 371438
Requeued flit 371438
3
Received nack credit for flit 376136
Requeued flit 376136
10
Received nack credit for flit 376549
Requeued flit 376549
3
Received nack credit for flit 379410
Requeued flit 379410
6
Received nack credit for flit 379654
Requeued flit 379654
1
Received nack credit for flit 381343
Requeued flit 381343
4
Received nack credit for flit 382346
Requeued flit 382346
1
Received nack credit for flit 382742
Requeued flit 382742
1
Received nack credit for flit 384198
Requeued flit 384198
2
Received nack credit for flit 388942
Requeued flit 388942
2
Received nack credit for flit 389063
Requeued flit 389063
1
Received nack credit for flit 389452
Requeued flit 389452
2
Received nack credit for flit 392934
Requeued flit 392934
3
Received nack credit for flit 393674
Requeued flit 393674
5
Received nack credit for flit 401812
Requeued flit 401812
1
Received nack credit for flit 408514
Requeued flit 408514
2
Received nack credit for flit 415332
Requeued flit 415332
7
Received nack credit for flit 417024
Requeued flit 417024
1
Received nack credit for flit 421612
Requeued flit 421612
3
Received nack credit for flit 421650
Requeued flit 421650
1
Received nack credit for flit 422454
Requeued flit 422454
3
Received nack credit for flit 422629
Requeued flit 422629
1
Received nack credit for flit 424791
Requeued flit 424791
1
1
Received nack credit for flit 425551
Requeued flit 425551
1
Received nack credit for flit 425755
Requeued flit 425755
Received nack credit for flit 425773
Requeued flit 425773
6
Received nack credit for flit 427580
Requeued flit 427580
2
Received nack credit for flit 428292
Requeued flit 428292
11
Received nack credit for flit 428592
Requeued flit 428592
8
Received nack credit for flit 430294
Requeued flit 430294
4
Received nack credit for flit 432446
Requeued flit 432446
8
Received nack credit for flit 433354
Requeued flit 433354
4
Received nack credit for flit 433937
Requeued flit 433937
3
Received nack credit for flit 435249
Requeued flit 435249
4
3
Received nack credit for flit 436220
Requeued flit 436220
Received nack credit for flit 436291
Requeued flit 436291
1
Received nack credit for flit 437434
Requeued flit 437434
6
Received nack credit for flit 437559
Requeued flit 437559
1
Received nack credit for flit 439208
Requeued flit 439208
1
Received nack credit for flit 440376
Requeued flit 440376
6
Received nack credit for flit 444197
Requeued flit 444197
4
Received nack credit for flit 445079
Requeued flit 445079
4
Received nack credit for flit 449227
Requeued flit 449227
8
Received nack credit for flit 456696
Requeued flit 456696
6
6
Received nack credit for flit 460525
Requeued flit 460525
Received nack credit for flit 460598
Requeued flit 460598
3
Received nack credit for flit 461234
Requeued flit 461234
7
Received nack credit for flit 463301
Requeued flit 463301
5
Received nack credit for flit 464155
Requeued flit 464155
6
Received nack credit for flit 473899
Requeued flit 473899
7
Received nack credit for flit 474788
Requeued flit 474788
3
Received nack credit for flit 476620
Requeued flit 476620
1
Received nack credit for flit 478034
Requeued flit 478034
1
Received nack credit for flit 478894
Requeued flit 478894
Class 0:
Packet latency average = 21.662
	minimum = 5
	maximum = 61
Network latency average = 21.662
	minimum = 5
	maximum = 61
Slowest packet = 428592
Flit latency average = 21.662
	minimum = 5
	maximum = 61
Slowest flit = 428592
Fragmentation average = 0
	minimum = 0
	maximum = 0
Injected packet rate average = 0.250211
	minimum = 0.2416 (at node 47)
	maximum = 0.2639 (at node 14)
Accepted packet rate average = 0.250248
	minimum = 0.2383 (at node 1)
	maximum = 0.2644 (at node 57)
Injected flit rate average = 0.250211
	minimum = 0.2416 (at node 47)
	maximum = 0.2639 (at node 14)
Accepted flit rate average= 0.250248
	minimum = 0.2383 (at node 1)
	maximum = 0.2644 (at node 57)
Injected packet length average = 1
Accepted packet length average = 1
Total in-flight flits = 353 (0 measured)
latency change    = 0.000826174
throughput change = 0.00329048
Warmed up ...Time used is 30000 cycles
7
Received nack credit for flit 480951
Requeued flit 480951
1
Received nack credit for flit 483566
Requeued flit 483566
4
Received nack credit for flit 484654
Requeued flit 484654
3
Received nack credit for flit 485835
Requeued flit 485835
4
Received nack credit for flit 487452
Requeued flit 487452
2
Received nack credit for flit 488064
Requeued flit 488064
4
Received nack credit for flit 491945
Requeued flit 491945
9
Received nack credit for flit 494851
Requeued flit 494851
1
Received nack credit for flit 495806
Requeued flit 495806
2
Received nack credit for flit 495872
Requeued flit 495872
1
Received nack credit for flit 504084
Requeued flit 504084
6
Received nack credit for flit 504484
Requeued flit 504484
1
Received nack credit for flit 506273
Requeued flit 506273
7
Received nack credit for flit 506084
Requeued flit 506084
1
Received nack credit for flit 511071
Requeued flit 511071
1
Received nack credit for flit 511322
Requeued flit 511322
2
Received nack credit for flit 514581
Requeued flit 514581
8
Received nack credit for flit 516757
Requeued flit 516757
2
Received nack credit for flit 517513
Requeued flit 517513
2
Received nack credit for flit 519069
Requeued flit 519069
3
Received nack credit for flit 519816
Requeued flit 519816
1
Received nack credit for flit 525244
Requeued flit 525244
1
Received nack credit for flit 529389
Requeued flit 529389
2
Received nack credit for flit 532559
Requeued flit 532559
4
Received nack credit for flit 534324
Requeued flit 534324
2
Received nack credit for flit 536457
Requeued flit 536457
6
Received nack credit for flit 537084
Requeued flit 537084
2
Received nack credit for flit 538740
Requeued flit 538740
5
Received nack credit for flit 540839
Requeued flit 540839
1
Received nack credit for flit 546940
Requeued flit 546940
4
Received nack credit for flit 547582
Requeued flit 547582
8
Received nack credit for flit 551588
Requeued flit 551588
7
Received nack credit for flit 552183
Requeued flit 552183
5
Received nack credit for flit 555341
Requeued flit 555341
2
Received nack credit for flit 556859
Requeued flit 556859
3
Received nack credit for flit 557594
Requeued flit 557594
3
Received nack credit for flit 559018
Requeued flit 559018
3
Received nack credit for flit 559973
Requeued flit 559973
3
Received nack credit for flit 560994
Requeued flit 560994
1
2
Received nack credit for flit 563157
Requeued flit 563157
Received nack credit for flit 563191
Requeued flit 563191
1
Received nack credit for flit 563940
Requeued flit 563940
2
Received nack credit for flit 564356
Requeued flit 564356
2
Received nack credit for flit 565379
Requeued flit 565379
2
Received nack credit for flit 570707
Requeued flit 570707
2
Received nack credit for flit 570913
Requeued flit 570913
1
Received nack credit for flit 571941
Requeued flit 571941
5
Received nack credit for flit 572406
Requeued flit 572406
4
Received nack credit for flit 572634
Requeued flit 572634
1
Received nack credit for flit 572998
Requeued flit 572998
2
Received nack credit for flit 576134
Requeued flit 576134
6
Received nack credit for flit 576127
Requeued flit 576127
2
Received nack credit for flit 576991
Requeued flit 576991
5
Received nack credit for flit 578930
Requeued flit 578930
1
Received nack credit for flit 581923
Requeued flit 581923
3
Received nack credit for flit 582704
Requeued flit 582704
8
Received nack credit for flit 583190
Requeued flit 583190
1
Received nack credit for flit 584680
Requeued flit 584680
6
Received nack credit for flit 584861
Requeued flit 584861
4
Received nack credit for flit 590710
Requeued flit 590710
6
Received nack credit for flit 592251
Requeued flit 592251
9
Received nack credit for flit 592762
Requeued flit 592762
4
Received nack credit for flit 595155
Requeued flit 595155
3
1
Received nack credit for flit 595369
Requeued flit 595369
Received nack credit for flit 595570
Requeued flit 595570
8
Received nack credit for flit 597325
Requeued flit 597325
4
Received nack credit for flit 600913
Requeued flit 600913
3
2
Received nack credit for flit 601802
Requeued flit 601802
Received nack credit for flit 602038
Requeued flit 602038
4
Received nack credit for flit 602659
Requeued flit 602659
1
Received nack credit for flit 604096
Requeued flit 604096
5
Received nack credit for flit 605790
Requeued flit 605790
5
Received nack credit for flit 608855
Requeued flit 608855
1
Received nack credit for flit 610276
Requeued flit 610276
7
Received nack credit for flit 612942
Requeued flit 612942
4
Received nack credit for flit 613876
Requeued flit 613876
2
7
Received nack credit for flit 615092
Requeued flit 615092
Received nack credit for flit 615368
Requeued flit 615368
3
Received nack credit for flit 616871
Requeued flit 616871
4
Received nack credit for flit 617532
Requeued flit 617532
6
Received nack credit for flit 618717
Requeued flit 618717
8
Received nack credit for flit 619909
Requeued flit 619909
4
Received nack credit for flit 622986
Requeued flit 622986
1
Received nack credit for flit 627049
Requeued flit 627049
1
1
Received nack credit for flit 627764
Requeued flit 627764
Received nack credit for flit 627790
Requeued flit 627790
1
Received nack credit for flit 628417
Requeued flit 628417
5
Received nack credit for flit 629846
Requeued flit 629846
5
Received nack credit for flit 632001
Requeued flit 632001
1
Received nack credit for flit 633282
Requeued flit 633282
8
Received nack credit for flit 633104
Requeued flit 633104
7
Received nack credit for flit 634545
Requeued flit 634545
4
Received nack credit for flit 637065
Requeued flit 637065
3
Received nack credit for flit 638965
Requeued flit 638965
Class 0:
Packet latency average = 21.6426
	minimum = 5
	maximum = 59
Network latency average = 21.6426
	minimum = 5
	maximum = 59
Slowest packet = 602038
Flit latency average = 21.6494
	minimum = 5
	maximum = 59
Slowest flit = 602038
Fragmentation average = 0
	minimum = 0
	maximum = 0
Injected packet rate average = 0.249592
	minimum = 0.241 (at node 20)
	maximum = 0.26 (at node 18)
Accepted packet rate average = 0.249595
	minimum = 0.2388 (at node 20)
	maximum = 0.261 (at node 31)
Injected flit rate average = 0.249592
	minimum = 0.241 (at node 20)
	maximum = 0.26 (at node 18)
Accepted flit rate average= 0.249595
	minimum = 0.2388 (at node 20)
	maximum = 0.261 (at node 31)
Injected packet length average = 1
Accepted packet length average = 1
Total in-flight flits = 351 (351 measured)
latency change    = 0.000895652
throughput change = 0.00261674
1
Received nack credit for flit 640616
Requeued flit 640616
1
Received nack credit for flit 650206
Requeued flit 650206
3
Received nack credit for flit 651002
Requeued flit 651002
1
Received nack credit for flit 653857
Requeued flit 653857
3
Received nack credit for flit 655954
Requeued flit 655954
1
Received nack credit for flit 656687
Requeued flit 656687
1
Received nack credit for flit 661013
Requeued flit 661013
2
Received nack credit for flit 663524
Requeued flit 663524
6
Received nack credit for flit 664310
Requeued flit 664310
5
Received nack credit for flit 666590
Requeued flit 666590
4
Received nack credit for flit 669040
Requeued flit 669040
5
Received nack credit for flit 670453
Requeued flit 670453
2
Received nack credit for flit 673817
Requeued flit 673817
5
Received nack credit for flit 674593
Requeued flit 674593
4
Received nack credit for flit 675056
Requeued flit 675056
3
Received nack credit for flit 676073
Requeued flit 676073
1
Received nack credit for flit 682515
Requeued flit 682515
5
2
Received nack credit for flit 684644
Requeued flit 684644
Received nack credit for flit 684912
Requeued flit 684912
1
Received nack credit for flit 687118
Requeued flit 687118
2
Received nack credit for flit 687733
Requeued flit 687733
2
Received nack credit for flit 689460
Requeued flit 689460
8
Received nack credit for flit 689548
Requeued flit 689548
5
Received nack credit for flit 691430
Requeued flit 691430
9
Received nack credit for flit 691931
Requeued flit 691931
5
Received nack credit for flit 692313
Requeued flit 692313
7
Received nack credit for flit 693579
Requeued flit 693579
7
Received nack credit for flit 694660
Requeued flit 694660
5
Received nack credit for flit 695206
Requeued flit 695206
12
Received nack credit for flit 695899
Requeued flit 695899
1
Received nack credit for flit 698051
Requeued flit 698051
2
Received nack credit for flit 699202
Requeued flit 699202
1
Received nack credit for flit 699992
Requeued flit 699992
3
Received nack credit for flit 708775
Requeued flit 708775
3
Received nack credit for flit 709249
Requeued flit 709249
5
Received nack credit for flit 711807
Requeued flit 711807
2
3
Received nack credit for flit 713824
Requeued flit 713824
Received nack credit for flit 713778
Requeued flit 713778
3
Received nack credit for flit 717732
Requeued flit 717732
1
Received nack credit for flit 719270
Requeued flit 719270
1
Received nack credit for flit 722585
Requeued flit 722585
3
Received nack credit for flit 723086
Requeued flit 723086
4
Received nack credit for flit 724906
Requeued flit 724906
3
5
Received nack credit for flit 726740
Requeued flit 726740
Received nack credit for flit 726695
Requeued flit 726695
1
Received nack credit for flit 728503
Requeued flit 728503
2
Received nack credit for flit 729170
Requeued flit 729170
2
Received nack credit for flit 730102
Requeued flit 730102
2
Received nack credit for flit 731485
Requeued flit 731485
3
Received nack credit for flit 731907
Requeued flit 731907
9
Received nack credit for flit 734278
Requeued flit 734278
4
Received nack credit for flit 735873
Requeued flit 735873
10
Received nack credit for flit 736104
Requeued flit 736104
1
Received nack credit for flit 737361
Requeued flit 737361
4
Received nack credit for flit 738646
Requeued flit 738646
2
Received nack credit for flit 739862
Requeued flit 739862
4
Received nack credit for flit 743469
Requeued flit 743469
2
Received nack credit for flit 743762
Requeued flit 743762
1
Received nack credit for flit 744324
Requeued flit 744324
8
Received nack credit for flit 746527
Requeued flit 746527
1
Received nack credit for flit 748452
Requeued flit 748452
1
Received nack credit for flit 750244
Requeued flit 750244
2
Received nack credit for flit 751431
Requeued flit 751431
1
Received nack credit for flit 753536
Requeued flit 753536
1
1
Received nack credit for flit 755305
Requeued flit 755305
Received nack credit for flit 755403
Requeued flit 755403
2
Received nack credit for flit 760741
Requeued flit 760741
3
Received nack credit for flit 763455
Requeued flit 763455
3
Received nack credit for flit 763979
Requeued flit 763979
1
Received nack credit for flit 764883
Requeued flit 764883
1
Received nack credit for flit 768592
Requeued flit 768592
4
Received nack credit for flit 769899
Requeued flit 769899
3
Received nack credit for flit 776866
Requeued flit 776866
1
Received nack credit for flit 777712
Requeued flit 777712
1
Received nack credit for flit 780136
Requeued flit 780136
1
Received nack credit for flit 780491
Requeued flit 780491
3
Received nack credit for flit 780556
Requeued flit 780556
2
Received nack credit for flit 782047
Requeued flit 782047
3
1
Received nack credit for flit 784683
Requeued flit 784683
Received nack credit for flit 784820
Requeued flit 784820
8
Received nack credit for flit 785480
Requeued flit 785480
2
1
Received nack credit for flit 786457
Requeued flit 786457
Received nack credit for flit 786511
Requeued flit 786511
1
Received nack credit for flit 787890
Requeued flit 787890
5
Received nack credit for flit 788106
Requeued flit 788106
10
Received nack credit for flit 792088
Requeued flit 792088
1
Received nack credit for flit 795995
Requeued flit 795995
2
3
Received nack credit for flit 797699
Requeued flit 797699
Received nack credit for flit 797724
Requeued flit 797724
5
Received nack credit for flit 797709
Requeued flit 797709
Class 0:
Packet latency average = 21.661
	minimum = 5
	maximum = 59
Network latency average = 21.661
	minimum = 5
	maximum = 59
Slowest packet = 602038
Flit latency average = 21.6644
	minimum = 5
	maximum = 59
Slowest flit = 602038
Fragmentation average = 0
	minimum = 0
	maximum = 0
Injected packet rate average = 0.249613
	minimum = 0.24375 (at node 55)
	maximum = 0.25535 (at node 15)
Accepted packet rate average = 0.249622
	minimum = 0.2429 (at node 14)
	maximum = 0.256 (at node 57)
Injected flit rate average = 0.249613
	minimum = 0.24375 (at node 55)
	maximum = 0.25535 (at node 15)
Accepted flit rate average= 0.249622
	minimum = 0.2429 (at node 14)
	maximum = 0.256 (at node 57)
Injected packet length average = 1
Accepted packet length average = 1
Total in-flight flits = 342 (342 measured)
latency change    = 0.000848111
throughput change = 0.000106411
7
Received nack credit for flit 801891
Requeued flit 801891
1
Received nack credit for flit 802546
Requeued flit 802546
4
Received nack credit for flit 803520
Requeued flit 803520
6
Received nack credit for flit 804127
Requeued flit 804127
1
Received nack credit for flit 804984
Requeued flit 804984
4
Received nack credit for flit 806175
Requeued flit 806175
6
Received nack credit for flit 806660
Requeued flit 806660
2
Received nack credit for flit 812542
Requeued flit 812542
7
Received nack credit for flit 813708
Requeued flit 813708
3
Received nack credit for flit 814865
Requeued flit 814865
1
6
Received nack credit for flit 815248
Requeued flit 815248
Received nack credit for flit 815070
Requeued flit 815070
4
Received nack credit for flit 816981
Requeued flit 816981
5
Received nack credit for flit 818870
Requeued flit 818870
8
Received nack credit for flit 822757
Requeued flit 822757
7
4
Received nack credit for flit 825469
Requeued flit 825469
Received nack credit for flit 825769
Requeued flit 825769
6
Received nack credit for flit 825908
Requeued flit 825908
7
Received nack credit for flit 826709
Requeued flit 826709
4
Received nack credit for flit 829673
Requeued flit 829673
2
Received nack credit for flit 830603
Requeued flit 830603
4
2
Received nack credit for flit 831643
Requeued flit 831643
Received nack credit for flit 831836
Requeued flit 831836
2
Received nack credit for flit 833815
Requeued flit 833815
1
Received nack credit for flit 836859
Requeued flit 836859
2
Received nack credit for flit 839562
Requeued flit 839562
1
Received nack credit for flit 840250
Requeued flit 840250
1
Received nack credit for flit 843671
Requeued flit 843671
6
Received nack credit for flit 846481
Requeued flit 846481
5
Received nack credit for flit 848380
Requeued flit 848380
5
Received nack credit for flit 849089
Requeued flit 849089
5
Received nack credit for flit 850292
Requeued flit 850292
3
Received nack credit for flit 850805
Requeued flit 850805
5
Received nack credit for flit 852226
Requeued flit 852226
1
Received nack credit for flit 853266
Requeued flit 853266
6
Received nack credit for flit 857328
Requeued flit 857328
1
Received nack credit for flit 858733
Requeued flit 858733
3
Received nack credit for flit 859240
Requeued flit 859240
1
Received nack credit for flit 861101
Requeued flit 861101
7
Received nack credit for flit 861862
Requeued flit 861862
1
5
Received nack credit for flit 862245
Requeued flit 862245
Received nack credit for flit 862125
Requeued flit 862125
1
Received nack credit for flit 862759
Requeued flit 862759
2
Received nack credit for flit 865616
Requeued flit 865616
1
Received nack credit for flit 866704
Requeued flit 866704
2
Received nack credit for flit 867056
Requeued flit 867056
1
Received nack credit for flit 868889
Requeued flit 868889
1
Received nack credit for flit 870489
Requeued flit 870489
4
Received nack credit for flit 871356
Requeued flit 871356
4
Received nack credit for flit 875402
Requeued flit 875402
3
Received nack credit for flit 876224
Requeued flit 876224
2
Received nack credit for flit 877806
Requeued flit 877806
1
Received nack credit for flit 878529
Requeued flit 878529
1
Received nack credit for flit 878822
Requeued flit 878822
1
Received nack credit for flit 879038
Requeued flit 879038
2
Received nack credit for flit 879186
Requeued flit 879186
6
Received nack credit for flit 882079
Requeued flit 882079
2
Received nack credit for flit 882830
Requeued flit 882830
2
Received nack credit for flit 886086
Requeued flit 886086
5
Received nack credit for flit 887784
Requeued flit 887784
1
Received nack credit for flit 890077
Requeued flit 890077
5
Received nack credit for flit 890274
Requeued flit 890274
2
Received nack credit for flit 891590
Requeued flit 891590
1
Received nack credit for flit 891947
Requeued flit 891947
1
Received nack credit for flit 892229
Requeued flit 892229
1
Received nack credit for flit 896260
Requeued flit 896260
8
Received nack credit for flit 897268
Requeued flit 897268
4
Received nack credit for flit 899536
Requeued flit 899536
4
Received nack credit for flit 903709
Requeued flit 903709
1
Received nack credit for flit 906919
Requeued flit 906919
3
Received nack credit for flit 907221
Requeued flit 907221
1
Received nack credit for flit 914745
Requeued flit 914745
1
1
Received nack credit for flit 916247
Requeued flit 916247
Received nack credit for flit 916162
Requeued flit 916162
4
Received nack credit for flit 919230
Requeued flit 919230
1
1
Received nack credit for flit 921002
Requeued flit 921002
Received nack credit for flit 921081
Requeued flit 921081
5
Received nack credit for flit 921892
Requeued flit 921892
2
Received nack credit for flit 922360
Requeued flit 922360
1
Received nack credit for flit 925363
Requeued flit 925363
2
Received nack credit for flit 926311
Requeued flit 926311
1
Received nack credit for flit 928886
Requeued flit 928886
2
Received nack credit for flit 929806
Requeued flit 929806
1
Received nack credit for flit 931153
Requeued flit 931153
7
Received nack credit for flit 933857
Requeued flit 933857
5
Received nack credit for flit 934140
Requeued flit 934140
1
Received nack credit for flit 934861
Requeued flit 934861
1
Received nack credit for flit 939268
Requeued flit 939268
6
Received nack credit for flit 940816
Requeued flit 940816
1
Received nack credit for flit 941697
Requeued flit 941697
1
4
Received nack credit for flit 943151
Requeued flit 943151
Received nack credit for flit 943021
Requeued flit 943021
5
Received nack credit for flit 944261
Requeued flit 944261
5
Received nack credit for flit 947259
Requeued flit 947259
1
Received nack credit for flit 949592
Requeued flit 949592
6
Received nack credit for flit 952460
Requeued flit 952460
5
Received nack credit for flit 953183
Requeued flit 953183
3
3
Received nack credit for flit 957314
Requeued flit 957314
Received nack credit for flit 957366
Requeued flit 957366
5
1
Received nack credit for flit 957490
Requeued flit 957490
Received nack credit for flit 957762
Requeued flit 957762
Class 0:
Packet latency average = 21.67
	minimum = 5
	maximum = 59
Network latency average = 21.67
	minimum = 5
	maximum = 59
Slowest packet = 602038
Flit latency average = 21.6722
	minimum = 5
	maximum = 59
Slowest flit = 602038
Fragmentation average = 0
	minimum = 0
	maximum = 0
Injected packet rate average = 0.24969
	minimum = 0.245267 (at node 26)
	maximum = 0.253733 (at node 15)
Accepted packet rate average = 0.249679
	minimum = 0.243133 (at node 4)
	maximum = 0.256133 (at node 15)
Injected flit rate average = 0.24969
	minimum = 0.245267 (at node 26)
	maximum = 0.253733 (at node 15)
Accepted flit rate average= 0.249679
	minimum = 0.243133 (at node 4)
	maximum = 0.256133 (at node 15)
Injected packet length average = 1
Accepted packet length average = 1
Total in-flight flits = 375 (375 measured)
latency change    = 0.00041465
throughput change = 0.000227376
Draining all recorded packets ...
Draining remaining packets ...
Time taken is 60085 cycles
====== Overall Traffic Statistics ======
====== Traffic class 0 ======
Packet latency average = 21.6726 (1 samples)
	minimum = 5 (1 samples)
	maximum = 59 (1 samples)
Network latency average = 21.6726 (1 samples)
	minimum = 5 (1 samples)
	maximum = 59 (1 samples)
Flit latency average = 21.6751 (1 samples)
	minimum = 5 (1 samples)
	maximum = 59 (1 samples)
Fragmentation average = 0 (1 samples)
	minimum = 0 (1 samples)
	maximum = 0 (1 samples)
Injected packet rate average = 0.24969 (1 samples)
	minimum = 0.245267 (1 samples)
	maximum = 0.253733 (1 samples)
Accepted packet rate average = 0.249679 (1 samples)
	minimum = 0.243133 (1 samples)
	maximum = 0.256133 (1 samples)
Injected flit rate average = 0.24969 (1 samples)
	minimum = 0.245267 (1 samples)
	maximum = 0.253733 (1 samples)
Accepted flit rate average = 0.249679 (1 samples)
	minimum = 0.243133 (1 samples)
	maximum = 0.256133 (1 samples)
Injected packet size average = 1 (1 samples)
Accepted packet size average = 1 (1 samples)
Hops average = 6.24583 (1 samples)
Total run time 88.6832
