BEGIN Configuration File: examples/ecc_mesh88_config_1_0.800_packet_3
// $Id$

// Copyright (c) 2007-2015, Trustees of The Leland Stanford Junior University
// All rights reserved.
//
// Redistribution and use in source and binary forms, with or without
// modification, are permitted provided that the following conditions are met:
//
// Redistributions of source code must retain the above copyright notice, this
// list of conditions and the following disclaimer.
// Redistributions in binary form must reproduce the above copyright notice,
// this list of conditions and the following disclaimer in the documentation
// and/or other materials provided with the distribution.
//
// THIS SOFTWARE IS PROVIDED BY THE COPYRIGHT HOLDERS AND CONTRIBUTORS "AS IS"
// AND ANY EXPRESS OR IMPLIED WARRANTIES, INCLUDING, BUT NOT LIMITED TO, THE
// IMPLIED WARRANTIES OF MERCHANTABILITY AND FITNESS FOR A PARTICULAR PURPOSE
// ARE DISCLAIMED. IN NO EVENT SHALL THE COPYRIGHT OWNER OR CONTRIBUTORS BE
// LIABLE FOR ANY DIRECT, INDIRECT, INCIDENTAL, SPECIAL, EXEMPLARY, OR
// CONSEQUENTIAL DAMAGES (INCLUDING, BUT NOT LIMITED TO, PROCUREMENT OF
// SUBSTITUTE GOODS OR SERVICES; LOSS OF USE, DATA, OR PROFITS; OR BUSINESS
// INTERRUPTION) HOWEVER CAUSED AND ON ANY THEORY OF LIABILITY, WHETHER IN
// CONTRACT, STRICT LIABILITY, OR TORT (INCLUDING NEGLIGENCE OR OTHERWISE)
// ARISING IN ANY WAY OUT OF THE USE OF THIS SOFTWARE, EVEN IF ADVISED OF THE
// POSSIBILITY OF SUCH DAMAGE.

// Dragonfly
//




vc_buf_size = 256;


wait_for_tail_credit = 0;

//
// Router architecture
//
vc_allocator = separable_input_first; 
sw_allocator = separable_input_first;
alloc_iters  = 1;

credit_delay   = 2;
routing_delay  = 0;
vc_alloc_delay = 1;
sw_alloc_delay = 1;
st_final_delay = 1;

input_speedup     = 1;
output_speedup    = 1;
internal_speedup  = 2.0;


warmup_periods = 3;
sim_count          = 1;

sample_period  = 10000;  


routing_function = dor;
num_vcs     = 2;

priority = none;
traffic       = uniform; 

injection_rate = 0.8;
packet_size = 1;
injection_rate_uses_flits = 1;

topology = mesh;

k  = 8;
n  = 2;

fer = 3;
ecc = link;

watch_out=-;
//watch_file = watch.txt;

ecc = packet;

stats_out = examples/ecc_mesh88_config_1_0.800_packet_3.m;

END Configuration File: examples/ecc_mesh88_config_1_0.800_packet_3
Additional hops: 7
Set signal latency stall time: 14
Reenqueueing errored packet 17 at time 39
Additional hops: 12
Set signal latency stall time: 10
Additional hops: 15
Set signal latency stall time: 6
Additional hops: 20
Set signal latency stall time: 10
Reenqueueing errored packet 1269 at time 49
Reenqueueing errored packet 1171 at time 52
Additional hops: 29
Set signal latency stall time: 18
Additional hops: 33
Set signal latency stall time: 8
Reenqueueing errored packet 764 at time 56
Additional hops: 40
Set signal latency stall time: 14
Reenqueueing errored packet 1673 at time 63
Reenqueueing errored packet 785 at time 73
Additional hops: 42
Set signal latency stall time: 4
Reenqueueing errored packet 1308 at time 77
Reenqueueing errored packet 3404 at time 80
Additional hops: 50
Set signal latency stall time: 16
Additional hops: 55
Set signal latency stall time: 10
Reenqueueing errored packet 2795 at time 99
Additional hops: 60
Set signal latency stall time: 10
Reenqueueing errored packet 2392 at time 104
Additional hops: 67
Set signal latency stall time: 14
Additional hops: 71
Set signal latency stall time: 8
Additional hops: 79
Set signal latency stall time: 16
Reenqueueing errored packet 4243 at time 114
Reenqueueing errored packet 3342 at time 114
Reenqueueing errored packet 3570 at time 119
Additional hops: 87
Set signal latency stall time: 16
Reenqueueing errored packet 2254 at time 129
Additional hops: 95
Set signal latency stall time: 16
Additional hops: 97
Set signal latency stall time: 4
Reenqueueing errored packet 6364 at time 138
Reenqueueing errored packet 3208 at time 140
Additional hops: 103
Set signal latency stall time: 12
Additional hops: 111
Set signal latency stall time: 16
Reenqueueing errored packet 2922 at time 148
Additional hops: 115
Set signal latency stall time: 8
Additional hops: 122
Set signal latency stall time: 14
Additional hops: 129
Set signal latency stall time: 14
Reenqueueing errored packet 4641 at time 153
Additional hops: 135
Set signal latency stall time: 12
Reenqueueing errored packet 4875 at time 157
Reenqueueing errored packet 3416 at time 157
Additional hops: 141
Set signal latency stall time: 12
Reenqueueing errored packet 1987 at time 164
Reenqueueing errored packet 2613 at time 165
Additional hops: 147
Set signal latency stall time: 12
Additional hops: 157
Set signal latency stall time: 20
Reenqueueing errored packet 5566 at time 166
Additional hops: 163
Set signal latency stall time: 12
Additional hops: 170
Set signal latency stall time: 14
Reenqueueing errored packet 6277 at time 172
Reenqueueing errored packet 3933 at time 178
Additional hops: 177
Set signal latency stall time: 14
Reenqueueing errored packet 4678 at time 181
Reenqueueing errored packet 5161 at time 184
Reenqueueing errored packet 2738 at time 186
Additional hops: 187
Set signal latency stall time: 20
Reenqueueing errored packet 7247 at time 194
Additional hops: 197
Set signal latency stall time: 20
Additional hops: 205
Set signal latency stall time: 16
Additional hops: 214
Set signal latency stall time: 18
Reenqueueing errored packet 4593 at time 212
Reenqueueing errored packet 4215 at time 212
Reenqueueing errored packet 5129 at time 216
Additional hops: 222
Set signal latency stall time: 16
Additional hops: 231
Set signal latency stall time: 18
Reenqueueing errored packet 4997 at time 227
Reenqueueing errored packet 5093 at time 235
Additional hops: 236
Set signal latency stall time: 10
Reenqueueing errored packet 5697 at time 241
Additional hops: 244
Set signal latency stall time: 16
Reenqueueing errored packet 9068 at time 246
Additional hops: 254
Set signal latency stall time: 20
Additional hops: 263
Set signal latency stall time: 18
Reenqueueing errored packet 7178 at time 262
Additional hops: 269
Set signal latency stall time: 12
Reenqueueing errored packet 5754 at time 267
Reenqueueing errored packet 5320 at time 267
Additional hops: 275
Set signal latency stall time: 12
Reenqueueing errored packet 7428 at time 279
Additional hops: 284
Set signal latency stall time: 18
Additional hops: 294
Set signal latency stall time: 20
Additional hops: 299
Set signal latency stall time: 10
Reenqueueing errored packet 6669 at time 283
Additional hops: 308
Set signal latency stall time: 18
Additional hops: 312
Set signal latency stall time: 8
Reenqueueing errored packet 9966 at time 292
Additional hops: 325
Set signal latency stall time: 26
Reenqueueing errored packet 13423 at time 295
Additional hops: 332
Set signal latency stall time: 14
Reenqueueing errored packet 5408 at time 298
Reenqueueing errored packet 8958 at time 302
Reenqueueing errored packet 5762 at time 304
Reenqueueing errored packet 10835 at time 311
Additional hops: 339
Set signal latency stall time: 14
Additional hops: 345
Set signal latency stall time: 12
Additional hops: 353
Set signal latency stall time: 16
Additional hops: 357
Set signal latency stall time: 8
Reenqueueing errored packet 4181 at time 321
Additional hops: 363
Set signal latency stall time: 12
Additional hops: 371
Set signal latency stall time: 16
Additional hops: 377
Set signal latency stall time: 12
Reenqueueing errored packet 11928 at time 327
Reenqueueing errored packet 14523 at time 329
Reenqueueing errored packet 11882 at time 329
Reenqueueing errored packet 13424 at time 337
Reenqueueing errored packet 12397 at time 337
Reenqueueing errored packet 12244 at time 339
Additional hops: 386
Set signal latency stall time: 18
Reenqueueing errored packet 10438 at time 342
Additional hops: 394
Set signal latency stall time: 16
Additional hops: 399
Set signal latency stall time: 10
Additional hops: 406
Set signal latency stall time: 14
Additional hops: 409
Set signal latency stall time: 6
Reenqueueing errored packet 13387 at time 355
Reenqueueing errored packet 14907 at time 359
Reenqueueing errored packet 9235 at time 359
Reenqueueing errored packet 6373 at time 360
Additional hops: 417
Set signal latency stall time: 16
Reenqueueing errored packet 9537 at time 366
Additional hops: 426
Set signal latency stall time: 18
Additional hops: 433
Set signal latency stall time: 14
Additional hops: 439
Set signal latency stall time: 12
Additional hops: 450
Set signal latency stall time: 22
Reenqueueing errored packet 11696 at time 379
Additional hops: 459
Set signal latency stall time: 18
Reenqueueing errored packet 9366 at time 384
Reenqueueing errored packet 9073 at time 384
Additional hops: 466
Set signal latency stall time: 14
Reenqueueing errored packet 12193 at time 386
Reenqueueing errored packet 15301 at time 400
Reenqueueing errored packet 6502 at time 401
Reenqueueing errored packet 12019 at time 402
Additional hops: 469
Set signal latency stall time: 6
Additional hops: 475
Set signal latency stall time: 12
Additional hops: 481
Set signal latency stall time: 12
Reenqueueing errored packet 20194 at time 414
Additional hops: 489
Set signal latency stall time: 16
Additional hops: 490
Set signal latency stall time: 2
Reenqueueing errored packet 11678 at time 424
Additional hops: 497
Set signal latency stall time: 14
Reenqueueing errored packet 21274 at time 426
Reenqueueing errored packet 16110 at time 426
Additional hops: 505
Set signal latency stall time: 16
Additional hops: 512
Set signal latency stall time: 14
Reenqueueing errored packet 10851 at time 434
Additional hops: 519
Set signal latency stall time: 14
Additional hops: 527
Set signal latency stall time: 16
Additional hops: 539
Set signal latency stall time: 24
Reenqueueing errored packet 14773 at time 440
Reenqueueing errored packet 16606 at time 443
Reenqueueing errored packet 14204 at time 445
Additional hops: 543
Set signal latency stall time: 8
Additional hops: 550
Set signal latency stall time: 14
Additional hops: 555
Set signal latency stall time: 10
Reenqueueing errored packet 11545 at time 451
Additional hops: 558
Set signal latency stall time: 6
Reenqueueing errored packet 15909 at time 453
Reenqueueing errored packet 21277 at time 454
Reenqueueing errored packet 18912 at time 459
Reenqueueing errored packet 21846 at time 461
Additional hops: 563
Set signal latency stall time: 10
Additional hops: 570
Set signal latency stall time: 14
Reenqueueing errored packet 8898 at time 462
Additional hops: 574
Set signal latency stall time: 8
Reenqueueing errored packet 16742 at time 463
Additional hops: 581
Set signal latency stall time: 14
Additional hops: 583
Set signal latency stall time: 4
Reenqueueing errored packet 23399 at time 470
Additional hops: 590
Set signal latency stall time: 14
Reenqueueing errored packet 22727 at time 471
Reenqueueing errored packet 18565 at time 472
Additional hops: 593
Set signal latency stall time: 6
Additional hops: 599
Set signal latency stall time: 12
Additional hops: 607
Set signal latency stall time: 16
Reenqueueing errored packet 18716 at time 476
Reenqueueing errored packet 21441 at time 478
Reenqueueing errored packet 21635 at time 479
Additional hops: 614
Set signal latency stall time: 14
Additional hops: 623
Set signal latency stall time: 18
Reenqueueing errored packet 16906 at time 485
Reenqueueing errored packet 11152 at time 486
Additional hops: 629
Set signal latency stall time: 12
Reenqueueing errored packet 13405 at time 492
Reenqueueing errored packet 18015 at time 494
Additional hops: 636
Set signal latency stall time: 14
Additional hops: 641
Set signal latency stall time: 10
Additional hops: 647
Set signal latency stall time: 12
Reenqueueing errored packet 19197 at time 499
Reenqueueing errored packet 16713 at time 506
Additional hops: 651
Set signal latency stall time: 8
Reenqueueing errored packet 21793 at time 509
Reenqueueing errored packet 18936 at time 510
Additional hops: 654
Set signal latency stall time: 6
Additional hops: 663
Set signal latency stall time: 18
Reenqueueing errored packet 21252 at time 516
Reenqueueing errored packet 20742 at time 517
Additional hops: 668
Set signal latency stall time: 10
Additional hops: 671
Set signal latency stall time: 6
Additional hops: 678
Set signal latency stall time: 14
Reenqueueing errored packet 25438 at time 526
Reenqueueing errored packet 18993 at time 528
Reenqueueing errored packet 14862 at time 533
Reenqueueing errored packet 19261 at time 537
Additional hops: 686
Set signal latency stall time: 16
Additional hops: 694
Set signal latency stall time: 16
Additional hops: 700
Set signal latency stall time: 12
Reenqueueing errored packet 13653 at time 561
Reenqueueing errored packet 14489 at time 561
Reenqueueing errored packet 15760 at time 570
Additional hops: 710
Set signal latency stall time: 20
Additional hops: 721
Set signal latency stall time: 22
Additional hops: 729
Set signal latency stall time: 16
Additional hops: 739
Set signal latency stall time: 20
Additional hops: 745
Set signal latency stall time: 12
Additional hops: 752
Set signal latency stall time: 14
Additional hops: 757
Set signal latency stall time: 10
Additional hops: 762
Set signal latency stall time: 10
Additional hops: 767
Set signal latency stall time: 10
Reenqueueing errored packet 14356 at time 595
Reenqueueing errored packet 16420 at time 597
Reenqueueing errored packet 20639 at time 601
Reenqueueing errored packet 19338 at time 602
Reenqueueing errored packet 16620 at time 602
Additional hops: 775
Set signal latency stall time: 16
Reenqueueing errored packet 23376 at time 604
Reenqueueing errored packet 21612 at time 604
Reenqueueing errored packet 19914 at time 605
Reenqueueing errored packet 13618 at time 606
Additional hops: 779
Set signal latency stall time: 8
Additional hops: 786
Set signal latency stall time: 14
Additional hops: 792
Set signal latency stall time: 12
Reenqueueing errored packet 21980 at time 615
Additional hops: 798
Set signal latency stall time: 12
Additional hops: 803
Set signal latency stall time: 10
Additional hops: 813
Set signal latency stall time: 20
Reenqueueing errored packet 14013 at time 620
Reenqueueing errored packet 23637 at time 627
Reenqueueing errored packet 25192 at time 628
Reenqueueing errored packet 16213 at time 628
Reenqueueing errored packet 28471 at time 629
Additional hops: 819
Set signal latency stall time: 12
Additional hops: 824
Set signal latency stall time: 10
Reenqueueing errored packet 10873 at time 640
Reenqueueing errored packet 19784 at time 643
Reenqueueing errored packet 17422 at time 645
Additional hops: 828
Set signal latency stall time: 8
Additional hops: 832
Set signal latency stall time: 8
Additional hops: 839
Set signal latency stall time: 14
Additional hops: 845
Set signal latency stall time: 12
Additional hops: 850
Set signal latency stall time: 10
Reenqueueing errored packet 24734 at time 660
Reenqueueing errored packet 16696 at time 661
Reenqueueing errored packet 30099 at time 667
Additional hops: 857
Set signal latency stall time: 14
Reenqueueing errored packet 16837 at time 668
Reenqueueing errored packet 30394 at time 670
Additional hops: 863
Set signal latency stall time: 12
Additional hops: 869
Set signal latency stall time: 12
Reenqueueing errored packet 20086 at time 682
Additional hops: 876
Set signal latency stall time: 14
Reenqueueing errored packet 24472 at time 685
Additional hops: 887
Set signal latency stall time: 22
Additional hops: 894
Set signal latency stall time: 14
Reenqueueing errored packet 30249 at time 693
Reenqueueing errored packet 16450 at time 697
Additional hops: 904
Set signal latency stall time: 20
Additional hops: 911
Set signal latency stall time: 14
Reenqueueing errored packet 14804 at time 704
Reenqueueing errored packet 18467 at time 708
Reenqueueing errored packet 18272 at time 718
Reenqueueing errored packet 24104 at time 719
Additional hops: 918
Set signal latency stall time: 14
Additional hops: 924
Set signal latency stall time: 12
Additional hops: 933
Set signal latency stall time: 18
Additional hops: 936
Set signal latency stall time: 6
Reenqueueing errored packet 17635 at time 734
Reenqueueing errored packet 35374 at time 737
Reenqueueing errored packet 25516 at time 738
Additional hops: 946
Set signal latency stall time: 20
Additional hops: 958
Set signal latency stall time: 24
Reenqueueing errored packet 17654 at time 744
Additional hops: 964
Set signal latency stall time: 12
Reenqueueing errored packet 21658 at time 761
Reenqueueing errored packet 28964 at time 763
Additional hops: 972
Set signal latency stall time: 16
Additional hops: 975
Set signal latency stall time: 6
Additional hops: 983
Set signal latency stall time: 16
Reenqueueing errored packet 12304 at time 768
Additional hops: 989
Set signal latency stall time: 12
Additional hops: 999
Set signal latency stall time: 20
Additional hops: 1008
Set signal latency stall time: 18
Reenqueueing errored packet 35672 at time 774
Additional hops: 1015
Set signal latency stall time: 14
Additional hops: 1025
Set signal latency stall time: 20
Additional hops: 1028
Set signal latency stall time: 6
Reenqueueing errored packet 14145 at time 782
Reenqueueing errored packet 37456 at time 783
Additional hops: 1034
Set signal latency stall time: 12
Reenqueueing errored packet 25795 at time 784
Reenqueueing errored packet 31887 at time 788
Additional hops: 1046
Set signal latency stall time: 24
Additional hops: 1052
Set signal latency stall time: 12
Reenqueueing errored packet 22826 at time 791
Reenqueueing errored packet 23160 at time 791
Reenqueueing errored packet 18930 at time 793
Reenqueueing errored packet 19072 at time 796
Reenqueueing errored packet 17612 at time 798
Reenqueueing errored packet 20415 at time 803
Additional hops: 1056
Set signal latency stall time: 8
Reenqueueing errored packet 14970 at time 813
Reenqueueing errored packet 28687 at time 814
Additional hops: 1063
Set signal latency stall time: 14
Additional hops: 1070
Set signal latency stall time: 14
Additional hops: 1078
Set signal latency stall time: 16
Additional hops: 1085
Set signal latency stall time: 14
Additional hops: 1092
Set signal latency stall time: 14
Reenqueueing errored packet 30125 at time 830
Reenqueueing errored packet 23097 at time 835
Reenqueueing errored packet 24692 at time 839
Reenqueueing errored packet 30454 at time 840
Reenqueueing errored packet 18924 at time 843
Additional hops: 1096
Set signal latency stall time: 8
Additional hops: 1100
Set signal latency stall time: 8
Reenqueueing errored packet 36135 at time 859
Reenqueueing errored packet 35857 at time 861
Additional hops: 1109
Set signal latency stall time: 18
Additional hops: 1118
Set signal latency stall time: 18
Additional hops: 1127
Set signal latency stall time: 18
Additional hops: 1136
Set signal latency stall time: 18
Reenqueueing errored packet 32436 at time 881
Additional hops: 1147
Set signal latency stall time: 22
Additional hops: 1153
Set signal latency stall time: 12
Additional hops: 1161
Set signal latency stall time: 16
Additional hops: 1167
Set signal latency stall time: 12
Reenqueueing errored packet 23725 at time 888
Reenqueueing errored packet 17964 at time 890
Reenqueueing errored packet 23454 at time 896
Additional hops: 1175
Set signal latency stall time: 16
Reenqueueing errored packet 19711 at time 899
Reenqueueing errored packet 33013 at time 900
Additional hops: 1179
Set signal latency stall time: 8
Reenqueueing errored packet 21398 at time 903
Reenqueueing errored packet 18570 at time 904
Additional hops: 1187
Set signal latency stall time: 16
Additional hops: 1198
Set signal latency stall time: 22
Reenqueueing errored packet 29559 at time 909
Reenqueueing errored packet 34405 at time 913
Additional hops: 1204
Set signal latency stall time: 12
Additional hops: 1211
Set signal latency stall time: 14
Reenqueueing errored packet 33471 at time 921
Reenqueueing errored packet 30455 at time 926
Additional hops: 1212
Set signal latency stall time: 2
Additional hops: 1217
Set signal latency stall time: 10
Additional hops: 1225
Set signal latency stall time: 16
Reenqueueing errored packet 32004 at time 929
Reenqueueing errored packet 47163 at time 931
Reenqueueing errored packet 19396 at time 931
Additional hops: 1230
Set signal latency stall time: 10
Reenqueueing errored packet 35301 at time 939
Reenqueueing errored packet 27571 at time 945
Reenqueueing errored packet 40826 at time 946
Additional hops: 1238
Set signal latency stall time: 16
Additional hops: 1243
Set signal latency stall time: 10
Additional hops: 1250
Set signal latency stall time: 14
Additional hops: 1255
Set signal latency stall time: 10
Additional hops: 1261
Set signal latency stall time: 12
Reenqueueing errored packet 36978 at time 961
Additional hops: 1270
Set signal latency stall time: 18
Reenqueueing errored packet 34843 at time 964
Reenqueueing errored packet 29519 at time 966
Reenqueueing errored packet 30872 at time 969
Reenqueueing errored packet 27817 at time 971
Additional hops: 1279
Set signal latency stall time: 18
Additional hops: 1285
Set signal latency stall time: 12
Additional hops: 1295
Set signal latency stall time: 20
Reenqueueing errored packet 22028 at time 980
Additional hops: 1302
Set signal latency stall time: 14
Reenqueueing errored packet 39095 at time 989
Reenqueueing errored packet 21104 at time 990
Additional hops: 1311
Set signal latency stall time: 18
Additional hops: 1316
Set signal latency stall time: 10
Reenqueueing errored packet 34441 at time 999
Reenqueueing errored packet 39552 at time 1000
Reenqueueing errored packet 31531 at time 1002
Additional hops: 1326
Set signal latency stall time: 20
Additional hops: 1329
Set signal latency stall time: 6
Additional hops: 1336
Set signal latency stall time: 14
Reenqueueing errored packet 34941 at time 1009
Additional hops: 1341
Set signal latency stall time: 10
Reenqueueing errored packet 50833 at time 1015
Additional hops: 1346
Set signal latency stall time: 10
Additional hops: 1353
Set signal latency stall time: 14
Additional hops: 1358
Set signal latency stall time: 10
Additional hops: 1369
Set signal latency stall time: 22
Reenqueueing errored packet 32994 at time 1023
Additional hops: 1380
Set signal latency stall time: 22
Reenqueueing errored packet 43874 at time 1025
Reenqueueing errored packet 26078 at time 1025
Additional hops: 1389
Set signal latency stall time: 18
Reenqueueing errored packet 39120 at time 1026
Reenqueueing errored packet 42369 at time 1028
Additional hops: 1394
Set signal latency stall time: 10
Reenqueueing errored packet 29150 at time 1030
Additional hops: 1397
Set signal latency stall time: 6
Additional hops: 1402
Set signal latency stall time: 10
Additional hops: 1410
Set signal latency stall time: 16
Reenqueueing errored packet 38574 at time 1040
Reenqueueing errored packet 45444 at time 1044
Reenqueueing errored packet 39003 at time 1044
Reenqueueing errored packet 24260 at time 1045
Reenqueueing errored packet 28515 at time 1047
Additional hops: 1414
Set signal latency stall time: 8
Reenqueueing errored packet 41893 at time 1050
Additional hops: 1420
Set signal latency stall time: 12
Additional hops: 1425
Set signal latency stall time: 10
Additional hops: 1433
Set signal latency stall time: 16
Reenqueueing errored packet 25582 at time 1056
Reenqueueing errored packet 39433 at time 1058
Reenqueueing errored packet 32055 at time 1061
Additional hops: 1436
Set signal latency stall time: 6
Additional hops: 1444
Set signal latency stall time: 16
Additional hops: 1459
Set signal latency stall time: 30
Reenqueueing errored packet 35332 at time 1063
Additional hops: 1469
Set signal latency stall time: 20
Reenqueueing errored packet 53132 at time 1068
Reenqueueing errored packet 43744 at time 1068
Additional hops: 1473
Set signal latency stall time: 8
Additional hops: 1477
Set signal latency stall time: 8
Additional hops: 1485
Set signal latency stall time: 16
Reenqueueing errored packet 38775 at time 1078
Additional hops: 1488
Set signal latency stall time: 6
Additional hops: 1498
Set signal latency stall time: 20
Reenqueueing errored packet 44041 at time 1081
Reenqueueing errored packet 40942 at time 1082
Additional hops: 1503
Set signal latency stall time: 10
Additional hops: 1513
Set signal latency stall time: 20
Reenqueueing errored packet 46561 at time 1086
Reenqueueing errored packet 21863 at time 1086
Reenqueueing errored packet 23597 at time 1092
Reenqueueing errored packet 20222 at time 1093
Reenqueueing errored packet 42065 at time 1094
Additional hops: 1519
Set signal latency stall time: 12
Additional hops: 1523
Set signal latency stall time: 8
Additional hops: 1525
Set signal latency stall time: 4
Additional hops: 1532
Set signal latency stall time: 14
Additional hops: 1539
Set signal latency stall time: 14
Reenqueueing errored packet 37602 at time 1101
Additional hops: 1548
Set signal latency stall time: 18
Reenqueueing errored packet 55665 at time 1103
Additional hops: 1551
Set signal latency stall time: 6
Reenqueueing errored packet 27713 at time 1105
Reenqueueing errored packet 55076 at time 1106
Additional hops: 1555
Set signal latency stall time: 8
Reenqueueing errored packet 26860 at time 1109
Additional hops: 1561
Set signal latency stall time: 12
Additional hops: 1566
Set signal latency stall time: 10
Reenqueueing errored packet 55821 at time 1111
Additional hops: 1574
Set signal latency stall time: 16
Reenqueueing errored packet 24677 at time 1113
Reenqueueing errored packet 28558 at time 1114
Additional hops: 1579
Set signal latency stall time: 10
Reenqueueing errored packet 37325 at time 1117
Additional hops: 1584
Set signal latency stall time: 10
Reenqueueing errored packet 54781 at time 1121
Reenqueueing errored packet 41595 at time 1121
Reenqueueing errored packet 42814 at time 1122
Reenqueueing errored packet 44766 at time 1125
Reenqueueing errored packet 49181 at time 1128
Reenqueueing errored packet 27583 at time 1129
Additional hops: 1587
Set signal latency stall time: 6
Reenqueueing errored packet 57234 at time 1139
Additional hops: 1590
Set signal latency stall time: 6
Additional hops: 1599
Set signal latency stall time: 18
Reenqueueing errored packet 57463 at time 1146
Additional hops: 1609
Set signal latency stall time: 20
Additional hops: 1613
Set signal latency stall time: 8
Reenqueueing errored packet 58053 at time 1160
Reenqueueing errored packet 27726 at time 1162
Additional hops: 1616
Set signal latency stall time: 6
Additional hops: 1617
Set signal latency stall time: 2
Reenqueueing errored packet 59117 at time 1167
Additional hops: 1623
Set signal latency stall time: 12
Reenqueueing errored packet 50420 at time 1170
Reenqueueing errored packet 24137 at time 1171
Additional hops: 1628
Set signal latency stall time: 10
Reenqueueing errored packet 27273 at time 1181
Reenqueueing errored packet 55991 at time 1182
Additional hops: 1639
Set signal latency stall time: 22
Additional hops: 1645
Set signal latency stall time: 12
Additional hops: 1651
Set signal latency stall time: 12
Reenqueueing errored packet 45682 at time 1206
Reenqueueing errored packet 22485 at time 1206
Additional hops: 1654
Set signal latency stall time: 6
Reenqueueing errored packet 31725 at time 1214
Reenqueueing errored packet 55990 at time 1215
Additional hops: 1661
Set signal latency stall time: 14
Additional hops: 1668
Set signal latency stall time: 14
Additional hops: 1671
Set signal latency stall time: 6
Reenqueueing errored packet 39918 at time 1232
Reenqueueing errored packet 60725 at time 1233
Additional hops: 1678
Set signal latency stall time: 14
Additional hops: 1686
Set signal latency stall time: 16
Reenqueueing errored packet 45574 at time 1237
Additional hops: 1692
Set signal latency stall time: 12
Additional hops: 1696
Set signal latency stall time: 8
Additional hops: 1704
Set signal latency stall time: 16
Reenqueueing errored packet 32198 at time 1248
Reenqueueing errored packet 51160 at time 1251
Additional hops: 1712
Set signal latency stall time: 16
Reenqueueing errored packet 41285 at time 1253
Reenqueueing errored packet 49963 at time 1254
Reenqueueing errored packet 30578 at time 1261
Additional hops: 1714
Set signal latency stall time: 4
Reenqueueing errored packet 38972 at time 1268
Additional hops: 1724
Set signal latency stall time: 20
Reenqueueing errored packet 64153 at time 1271
Additional hops: 1729
Set signal latency stall time: 10
Additional hops: 1734
Set signal latency stall time: 10
Reenqueueing errored packet 53839 at time 1282
Reenqueueing errored packet 35935 at time 1288
Reenqueueing errored packet 32518 at time 1290
Additional hops: 1739
Set signal latency stall time: 10
Additional hops: 1749
Set signal latency stall time: 20
Additional hops: 1757
Set signal latency stall time: 16
Additional hops: 1762
Set signal latency stall time: 10
Additional hops: 1769
Set signal latency stall time: 14
Additional hops: 1778
Set signal latency stall time: 18
Additional hops: 1781
Set signal latency stall time: 6
Reenqueueing errored packet 47266 at time 1306
Reenqueueing errored packet 49419 at time 1310
Reenqueueing errored packet 59007 at time 1312
Reenqueueing errored packet 54361 at time 1315
Reenqueueing errored packet 28348 at time 1315
Additional hops: 1793
Set signal latency stall time: 24
Reenqueueing errored packet 32379 at time 1316
Additional hops: 1798
Set signal latency stall time: 10
Reenqueueing errored packet 32248 at time 1321
Additional hops: 1804
Set signal latency stall time: 12
Additional hops: 1807
Set signal latency stall time: 6
Additional hops: 1815
Set signal latency stall time: 16
Additional hops: 1823
Set signal latency stall time: 16
Reenqueueing errored packet 53015 at time 1328
Additional hops: 1832
Set signal latency stall time: 18
Reenqueueing errored packet 56043 at time 1333
Additional hops: 1839
Set signal latency stall time: 14
Reenqueueing errored packet 51488 at time 1339
Reenqueueing errored packet 22865 at time 1340
Reenqueueing errored packet 52488 at time 1343
Additional hops: 1849
Set signal latency stall time: 20
Reenqueueing errored packet 35165 at time 1344
Additional hops: 1854
Set signal latency stall time: 10
Reenqueueing errored packet 37067 at time 1349
Additional hops: 1860
Set signal latency stall time: 12
Reenqueueing errored packet 41369 at time 1352
Additional hops: 1871
Set signal latency stall time: 22
Reenqueueing errored packet 47834 at time 1358
Additional hops: 1881
Set signal latency stall time: 20
Additional hops: 1890
Set signal latency stall time: 18
Additional hops: 1898
Set signal latency stall time: 16
Reenqueueing errored packet 33885 at time 1364
Reenqueueing errored packet 31049 at time 1364
Reenqueueing errored packet 29740 at time 1375
Additional hops: 1912
Set signal latency stall time: 28
Reenqueueing errored packet 33204 at time 1380
Additional hops: 1921
Set signal latency stall time: 18
Reenqueueing errored packet 38274 at time 1381
Reenqueueing errored packet 42334 at time 1381
Additional hops: 1927
Set signal latency stall time: 12
Additional hops: 1932
Set signal latency stall time: 10
Additional hops: 1939
Set signal latency stall time: 14
Additional hops: 1951
Set signal latency stall time: 24
Reenqueueing errored packet 33144 at time 1398
Reenqueueing errored packet 40724 at time 1399
Additional hops: 1960
Set signal latency stall time: 18
Reenqueueing errored packet 62063 at time 1400
Additional hops: 1966
Set signal latency stall time: 12
Additional hops: 1971
Set signal latency stall time: 10
Reenqueueing errored packet 26957 at time 1404
Reenqueueing errored packet 38709 at time 1412
Reenqueueing errored packet 43134 at time 1413
Reenqueueing errored packet 42152 at time 1413
Reenqueueing errored packet 34713 at time 1418
Additional hops: 1978
Set signal latency stall time: 14
Reenqueueing errored packet 27513 at time 1422
Additional hops: 1983
Set signal latency stall time: 10
Additional hops: 1988
Set signal latency stall time: 10
Reenqueueing errored packet 43102 at time 1433
Reenqueueing errored packet 60408 at time 1435
Reenqueueing errored packet 50879 at time 1437
Additional hops: 1995
Set signal latency stall time: 14
Additional hops: 2002
Set signal latency stall time: 14
Additional hops: 2006
Set signal latency stall time: 8
Reenqueueing errored packet 54914 at time 1455
Additional hops: 2014
Set signal latency stall time: 16
Additional hops: 2023
Set signal latency stall time: 18
Reenqueueing errored packet 55041 at time 1461
Additional hops: 2034
Set signal latency stall time: 22
Reenqueueing errored packet 39267 at time 1466
Additional hops: 2038
Set signal latency stall time: 8
Additional hops: 2045
Set signal latency stall time: 14
Reenqueueing errored packet 38306 at time 1472
Reenqueueing errored packet 29502 at time 1474
Additional hops: 2054
Set signal latency stall time: 18
Reenqueueing errored packet 69406 at time 1475
Additional hops: 2060
Set signal latency stall time: 12
Additional hops: 2071
Set signal latency stall time: 22
Reenqueueing errored packet 66394 at time 1481
Additional hops: 2077
Set signal latency stall time: 12
Reenqueueing errored packet 34125 at time 1487
Reenqueueing errored packet 36211 at time 1488
Additional hops: 2086
Set signal latency stall time: 18
Additional hops: 2096
Set signal latency stall time: 20
Additional hops: 2105
Set signal latency stall time: 18
Reenqueueing errored packet 54649 at time 1493
Reenqueueing errored packet 60185 at time 1496
Reenqueueing errored packet 32088 at time 1500
Reenqueueing errored packet 48222 at time 1507
Reenqueueing errored packet 37089 at time 1509
Reenqueueing errored packet 29110 at time 1509
Additional hops: 2118
Set signal latency stall time: 26
Additional hops: 2124
Set signal latency stall time: 12
Additional hops: 2128
Set signal latency stall time: 8
Additional hops: 2133
Set signal latency stall time: 10
Additional hops: 2138
Set signal latency stall time: 10
Reenqueueing errored packet 60732 at time 1525
Reenqueueing errored packet 63794 at time 1525
Additional hops: 2146
Set signal latency stall time: 16
Additional hops: 2152
Set signal latency stall time: 12
Reenqueueing errored packet 57131 at time 1528
Additional hops: 2157
Set signal latency stall time: 10
Reenqueueing errored packet 43600 at time 1535
Additional hops: 2160
Set signal latency stall time: 6
Reenqueueing errored packet 28134 at time 1538
Reenqueueing errored packet 49534 at time 1540
Reenqueueing errored packet 58845 at time 1540
Additional hops: 2169
Set signal latency stall time: 18
Reenqueueing errored packet 77720 at time 1542
Reenqueueing errored packet 56284 at time 1542
Additional hops: 2180
Set signal latency stall time: 22
Additional hops: 2188
Set signal latency stall time: 16
Additional hops: 2193
Set signal latency stall time: 10
Additional hops: 2200
Set signal latency stall time: 14
Additional hops: 2205
Set signal latency stall time: 10
Additional hops: 2209
Set signal latency stall time: 8
Additional hops: 2213
Set signal latency stall time: 8
Reenqueueing errored packet 55661 at time 1556
Additional hops: 2218
Set signal latency stall time: 10
Reenqueueing errored packet 63272 at time 1560
Reenqueueing errored packet 58983 at time 1560
Reenqueueing errored packet 35085 at time 1561
Reenqueueing errored packet 60761 at time 1562
Reenqueueing errored packet 53363 at time 1563
Reenqueueing errored packet 57798 at time 1564
Reenqueueing errored packet 44336 at time 1566
Additional hops: 2221
Set signal latency stall time: 6
Additional hops: 2225
Set signal latency stall time: 8
Reenqueueing errored packet 60765 at time 1570
Reenqueueing errored packet 79393 at time 1574
Reenqueueing errored packet 78605 at time 1577
Additional hops: 2232
Set signal latency stall time: 14
Additional hops: 2237
Set signal latency stall time: 10
Additional hops: 2243
Set signal latency stall time: 12
Additional hops: 2253
Set signal latency stall time: 20
Reenqueueing errored packet 66440 at time 1600
Additional hops: 2258
Set signal latency stall time: 10
Reenqueueing errored packet 36197 at time 1603
Reenqueueing errored packet 52942 at time 1605
Additional hops: 2263
Set signal latency stall time: 10
Additional hops: 2268
Set signal latency stall time: 10
Additional hops: 2272
Set signal latency stall time: 8
Additional hops: 2280
Set signal latency stall time: 16
Additional hops: 2286
Set signal latency stall time: 12
Additional hops: 2292
Set signal latency stall time: 12
Additional hops: 2296
Set signal latency stall time: 8
Additional hops: 2310
Set signal latency stall time: 28
Reenqueueing errored packet 59898 at time 1613
Reenqueueing errored packet 80113 at time 1614
Reenqueueing errored packet 51287 at time 1616
Reenqueueing errored packet 80713 at time 1616
Reenqueueing errored packet 38934 at time 1616
Additional hops: 2313
Set signal latency stall time: 6
Reenqueueing errored packet 75946 at time 1619
Reenqueueing errored packet 65000 at time 1620
Additional hops: 2325
Set signal latency stall time: 24
Reenqueueing errored packet 81834 at time 1623
Reenqueueing errored packet 68642 at time 1623
Reenqueueing errored packet 39140 at time 1623
Additional hops: 2330
Set signal latency stall time: 10
Additional hops: 2334
Set signal latency stall time: 8
Reenqueueing errored packet 66055 at time 1634
Additional hops: 2343
Set signal latency stall time: 18
Additional hops: 2348
Set signal latency stall time: 10
Reenqueueing errored packet 63932 at time 1639
Reenqueueing errored packet 26642 at time 1640
Reenqueueing errored packet 31033 at time 1645
Reenqueueing errored packet 40879 at time 1649
Additional hops: 2357
Set signal latency stall time: 18
Reenqueueing errored packet 48218 at time 1653
Reenqueueing errored packet 40091 at time 1669
Additional hops: 2361
Set signal latency stall time: 8
Additional hops: 2366
Set signal latency stall time: 10
Additional hops: 2373
Set signal latency stall time: 14
Additional hops: 2378
Set signal latency stall time: 10
Reenqueueing errored packet 79887 at time 1678
Reenqueueing errored packet 71539 at time 1682
Additional hops: 2386
Set signal latency stall time: 16
Reenqueueing errored packet 80801 at time 1688
Reenqueueing errored packet 45040 at time 1688
Additional hops: 2393
Set signal latency stall time: 14
Additional hops: 2398
Set signal latency stall time: 10
Reenqueueing errored packet 35294 at time 1700
Reenqueueing errored packet 44636 at time 1703
Additional hops: 2400
Set signal latency stall time: 4
Additional hops: 2407
Set signal latency stall time: 14
Additional hops: 2414
Set signal latency stall time: 14
Reenqueueing errored packet 66422 at time 1705
Additional hops: 2418
Set signal latency stall time: 8
Additional hops: 2427
Set signal latency stall time: 18
Reenqueueing errored packet 86385 at time 1708
Additional hops: 2435
Set signal latency stall time: 16
Reenqueueing errored packet 78853 at time 1714
Reenqueueing errored packet 65832 at time 1719
Reenqueueing errored packet 43108 at time 1719
Additional hops: 2438
Set signal latency stall time: 6
Additional hops: 2448
Set signal latency stall time: 20
Additional hops: 2458
Set signal latency stall time: 20
Additional hops: 2467
Set signal latency stall time: 18
Reenqueueing errored packet 64250 at time 1725
Reenqueueing errored packet 46899 at time 1725
Additional hops: 2473
Set signal latency stall time: 12
Reenqueueing errored packet 71335 at time 1727
Reenqueueing errored packet 70163 at time 1738
Additional hops: 2482
Set signal latency stall time: 18
Reenqueueing errored packet 62822 at time 1742
Reenqueueing errored packet 51807 at time 1743
Reenqueueing errored packet 36937 at time 1743
Additional hops: 2487
Set signal latency stall time: 10
Additional hops: 2499
Set signal latency stall time: 24
Additional hops: 2511
Set signal latency stall time: 24
Reenqueueing errored packet 45889 at time 1760
Reenqueueing errored packet 68818 at time 1760
Additional hops: 2516
Set signal latency stall time: 10
Additional hops: 2525
Set signal latency stall time: 18
Reenqueueing errored packet 83109 at time 1772
Additional hops: 2536
Set signal latency stall time: 22
Additional hops: 2543
Set signal latency stall time: 14
Reenqueueing errored packet 35163 at time 1778
Reenqueueing errored packet 32685 at time 1778
Additional hops: 2548
Set signal latency stall time: 10
Reenqueueing errored packet 54389 at time 1786
Reenqueueing errored packet 43382 at time 1788
Reenqueueing errored packet 80510 at time 1790
Additional hops: 2550
Set signal latency stall time: 4
Additional hops: 2555
Set signal latency stall time: 10
Reenqueueing errored packet 40901 at time 1796
Reenqueueing errored packet 91101 at time 1797
Additional hops: 2564
Set signal latency stall time: 18
Additional hops: 2570
Set signal latency stall time: 12
Reenqueueing errored packet 68983 at time 1806
Additional hops: 2575
Set signal latency stall time: 10
Additional hops: 2581
Set signal latency stall time: 12
Additional hops: 2586
Set signal latency stall time: 10
Reenqueueing errored packet 72392 at time 1815
Additional hops: 2592
Set signal latency stall time: 12
Additional hops: 2595
Set signal latency stall time: 6
Reenqueueing errored packet 63260 at time 1817
Additional hops: 2602
Set signal latency stall time: 14
Reenqueueing errored packet 43397 at time 1820
Reenqueueing errored packet 83189 at time 1823
Reenqueueing errored packet 72414 at time 1824
Reenqueueing errored packet 65179 at time 1825
Reenqueueing errored packet 66609 at time 1828
Additional hops: 2603
Set signal latency stall time: 2
Reenqueueing errored packet 93259 at time 1832
Additional hops: 2614
Set signal latency stall time: 22
Reenqueueing errored packet 68850 at time 1834
Additional hops: 2619
Set signal latency stall time: 10
Additional hops: 2625
Set signal latency stall time: 12
Additional hops: 2633
Set signal latency stall time: 16
Reenqueueing errored packet 74366 at time 1848
Additional hops: 2641
Set signal latency stall time: 16
Reenqueueing errored packet 60472 at time 1852
Reenqueueing errored packet 45105 at time 1856
Additional hops: 2644
Set signal latency stall time: 6
Additional hops: 2654
Set signal latency stall time: 20
Reenqueueing errored packet 44999 at time 1862
Additional hops: 2658
Set signal latency stall time: 8
Reenqueueing errored packet 83401 at time 1865
Reenqueueing errored packet 44909 at time 1867
Additional hops: 2670
Set signal latency stall time: 24
Additional hops: 2675
Set signal latency stall time: 10
Reenqueueing errored packet 82996 at time 1873
Additional hops: 2681
Set signal latency stall time: 12
Additional hops: 2688
Set signal latency stall time: 14
Additional hops: 2694
Set signal latency stall time: 12
Reenqueueing errored packet 65815 at time 1882
Reenqueueing errored packet 43477 at time 1882
Additional hops: 2702
Set signal latency stall time: 16
Additional hops: 2708
Set signal latency stall time: 12
Reenqueueing errored packet 44894 at time 1891
Reenqueueing errored packet 57350 at time 1893
Additional hops: 2715
Set signal latency stall time: 14
Reenqueueing errored packet 45255 at time 1895
Reenqueueing errored packet 34730 at time 1895
Additional hops: 2723
Set signal latency stall time: 16
Additional hops: 2736
Set signal latency stall time: 26
Reenqueueing errored packet 64511 at time 1901
Reenqueueing errored packet 47044 at time 1901
Additional hops: 2743
Set signal latency stall time: 14
Additional hops: 2752
Set signal latency stall time: 18
Reenqueueing errored packet 56936 at time 1909
Additional hops: 2757
Set signal latency stall time: 10
Reenqueueing errored packet 61945 at time 1913
Additional hops: 2761
Set signal latency stall time: 8
Reenqueueing errored packet 55162 at time 1917
Reenqueueing errored packet 72279 at time 1921
Reenqueueing errored packet 41971 at time 1921
Reenqueueing errored packet 57410 at time 1923
Additional hops: 2766
Set signal latency stall time: 10
Reenqueueing errored packet 37181 at time 1925
Additional hops: 2775
Set signal latency stall time: 18
Reenqueueing errored packet 77775 at time 1934
Additional hops: 2783
Set signal latency stall time: 16
Reenqueueing errored packet 41586 at time 1946
Additional hops: 2791
Set signal latency stall time: 16
Additional hops: 2798
Set signal latency stall time: 14
Additional hops: 2806
Set signal latency stall time: 16
Additional hops: 2811
Set signal latency stall time: 10
Additional hops: 2814
Set signal latency stall time: 6
Reenqueueing errored packet 96577 at time 1960
Reenqueueing errored packet 61135 at time 1962
Reenqueueing errored packet 79092 at time 1962
Reenqueueing errored packet 45654 at time 1963
Reenqueueing errored packet 73980 at time 1963
Reenqueueing errored packet 48138 at time 1967
Additional hops: 2821
Set signal latency stall time: 14
Additional hops: 2831
Set signal latency stall time: 20
Additional hops: 2835
Set signal latency stall time: 8
Additional hops: 2843
Set signal latency stall time: 16
Additional hops: 2851
Set signal latency stall time: 16
Additional hops: 2859
Set signal latency stall time: 16
Additional hops: 2869
Set signal latency stall time: 20
Reenqueueing errored packet 67425 at time 1988
Reenqueueing errored packet 99516 at time 1990
Reenqueueing errored packet 49320 at time 1997
Additional hops: 2874
Set signal latency stall time: 10
Reenqueueing errored packet 50921 at time 1999
Reenqueueing errored packet 61133 at time 2001
Additional hops: 2884
Set signal latency stall time: 20
Reenqueueing errored packet 46036 at time 2002
Reenqueueing errored packet 59290 at time 2007
Reenqueueing errored packet 95790 at time 2009
Additional hops: 2888
Set signal latency stall time: 8
Additional hops: 2893
Set signal latency stall time: 10
Additional hops: 2899
Set signal latency stall time: 12
Reenqueueing errored packet 79709 at time 2020
Reenqueueing errored packet 56257 at time 2022
Reenqueueing errored packet 69428 at time 2026
Reenqueueing errored packet 81066 at time 2030
Additional hops: 2902
Set signal latency stall time: 6
Additional hops: 2911
Set signal latency stall time: 18
Additional hops: 2917
Set signal latency stall time: 12
Reenqueueing errored packet 103114 at time 2037
Additional hops: 2925
Set signal latency stall time: 16
Additional hops: 2929
Set signal latency stall time: 8
Additional hops: 2935
Set signal latency stall time: 12
Reenqueueing errored packet 64058 at time 2046
Reenqueueing errored packet 64234 at time 2049
Additional hops: 2943
Set signal latency stall time: 16
Reenqueueing errored packet 91971 at time 2051
Additional hops: 2949
Set signal latency stall time: 12
Reenqueueing errored packet 62990 at time 2053
Reenqueueing errored packet 87144 at time 2054
Additional hops: 2953
Set signal latency stall time: 8
Additional hops: 2957
Set signal latency stall time: 8
Additional hops: 2961
Set signal latency stall time: 8
Reenqueueing errored packet 69733 at time 2064
Reenqueueing errored packet 69828 at time 2066
Additional hops: 2972
Set signal latency stall time: 22
Reenqueueing errored packet 104240 at time 2071
Additional hops: 2978
Set signal latency stall time: 12
Additional hops: 2986
Set signal latency stall time: 16
Reenqueueing errored packet 85546 at time 2072
Reenqueueing errored packet 80805 at time 2072
Additional hops: 2988
Set signal latency stall time: 4
Additional hops: 2999
Set signal latency stall time: 22
Additional hops: 3008
Set signal latency stall time: 18
Reenqueueing errored packet 105440 at time 2077
Additional hops: 3019
Set signal latency stall time: 22
Reenqueueing errored packet 54129 at time 2084
Additional hops: 3021
Set signal latency stall time: 4
Reenqueueing errored packet 78999 at time 2088
Additional hops: 3028
Set signal latency stall time: 14
Reenqueueing errored packet 106136 at time 2092
Reenqueueing errored packet 45997 at time 2092
Additional hops: 3033
Set signal latency stall time: 10
Additional hops: 3039
Set signal latency stall time: 12
Reenqueueing errored packet 47533 at time 2095
Additional hops: 3044
Set signal latency stall time: 10
Additional hops: 3047
Set signal latency stall time: 6
Additional hops: 3055
Set signal latency stall time: 16
Reenqueueing errored packet 64149 at time 2099
Additional hops: 3065
Set signal latency stall time: 20
Reenqueueing errored packet 83081 at time 2103
Reenqueueing errored packet 101818 at time 2104
Reenqueueing errored packet 49265 at time 2104
Reenqueueing errored packet 64694 at time 2105
Reenqueueing errored packet 84305 at time 2106
Reenqueueing errored packet 51565 at time 2106
Additional hops: 3074
Set signal latency stall time: 18
Additional hops: 3081
Set signal latency stall time: 14
Reenqueueing errored packet 78105 at time 2115
Reenqueueing errored packet 40729 at time 2121
Additional hops: 3087
Set signal latency stall time: 12
Additional hops: 3093
Set signal latency stall time: 12
Reenqueueing errored packet 46739 at time 2128
Reenqueueing errored packet 50295 at time 2129
Additional hops: 3099
Set signal latency stall time: 12
Additional hops: 3107
Set signal latency stall time: 16
Reenqueueing errored packet 55294 at time 2137
Reenqueueing errored packet 76971 at time 2137
Additional hops: 3111
Set signal latency stall time: 8
Additional hops: 3120
Set signal latency stall time: 18
Reenqueueing errored packet 73634 at time 2143
Reenqueueing errored packet 70009 at time 2147
Reenqueueing errored packet 69684 at time 2149
Additional hops: 3125
Set signal latency stall time: 10
Additional hops: 3134
Set signal latency stall time: 18
Additional hops: 3139
Set signal latency stall time: 10
Reenqueueing errored packet 77448 at time 2159
Additional hops: 3147
Set signal latency stall time: 16
Reenqueueing errored packet 80419 at time 2160
Additional hops: 3156
Set signal latency stall time: 18
Reenqueueing errored packet 95794 at time 2168
Additional hops: 3162
Set signal latency stall time: 12
Additional hops: 3166
Set signal latency stall time: 8
Additional hops: 3170
Set signal latency stall time: 8
Reenqueueing errored packet 51526 at time 2175
Reenqueueing errored packet 82487 at time 2176
Reenqueueing errored packet 109795 at time 2178
Additional hops: 3177
Set signal latency stall time: 14
Reenqueueing errored packet 80201 at time 2180
Reenqueueing errored packet 71603 at time 2180
Reenqueueing errored packet 86369 at time 2181
Additional hops: 3184
Set signal latency stall time: 14
Additional hops: 3192
Set signal latency stall time: 16
Additional hops: 3199
Set signal latency stall time: 14
Reenqueueing errored packet 75970 at time 2194
Additional hops: 3202
Set signal latency stall time: 6
Additional hops: 3210
Set signal latency stall time: 16
Reenqueueing errored packet 54553 at time 2198
Additional hops: 3216
Set signal latency stall time: 12
Reenqueueing errored packet 60755 at time 2201
Additional hops: 3224
Set signal latency stall time: 16
Reenqueueing errored packet 108600 at time 2203
Reenqueueing errored packet 74042 at time 2204
Additional hops: 3236
Set signal latency stall time: 24
Additional hops: 3242
Set signal latency stall time: 12
Additional hops: 3244
Set signal latency stall time: 4
Reenqueueing errored packet 85337 at time 2212
Reenqueueing errored packet 91521 at time 2212
Additional hops: 3247
Set signal latency stall time: 6
Additional hops: 3253
Set signal latency stall time: 12
Reenqueueing errored packet 68242 at time 2214
Additional hops: 3259
Set signal latency stall time: 12
Reenqueueing errored packet 111702 at time 2219
Reenqueueing errored packet 56543 at time 2219
Reenqueueing errored packet 54977 at time 2220
Additional hops: 3266
Set signal latency stall time: 14
Additional hops: 3276
Set signal latency stall time: 20
Additional hops: 3283
Set signal latency stall time: 14
Reenqueueing errored packet 73313 at time 2226
Additional hops: 3292
Set signal latency stall time: 18
Reenqueueing errored packet 41343 at time 2229
Reenqueueing errored packet 86658 at time 2231
Reenqueueing errored packet 76082 at time 2236
Additional hops: 3300
Set signal latency stall time: 16
Reenqueueing errored packet 55804 at time 2240
Reenqueueing errored packet 52098 at time 2244
Reenqueueing errored packet 53501 at time 2247
Additional hops: 3308
Set signal latency stall time: 16
Reenqueueing errored packet 63828 at time 2253
Additional hops: 3316
Set signal latency stall time: 16
Additional hops: 3322
Set signal latency stall time: 12
Reenqueueing errored packet 86991 at time 2265
Additional hops: 3331
Set signal latency stall time: 18
Additional hops: 3335
Set signal latency stall time: 8
Additional hops: 3342
Set signal latency stall time: 14
Reenqueueing errored packet 65723 at time 2270
Additional hops: 3352
Set signal latency stall time: 20
Reenqueueing errored packet 88728 at time 2274
Reenqueueing errored packet 114329 at time 2275
Additional hops: 3360
Set signal latency stall time: 16
Additional hops: 3366
Set signal latency stall time: 12
Additional hops: 3373
Set signal latency stall time: 14
Reenqueueing errored packet 96494 at time 2284
Reenqueueing errored packet 60902 at time 2284
Additional hops: 3382
Set signal latency stall time: 18
Additional hops: 3387
Set signal latency stall time: 10
Additional hops: 3394
Set signal latency stall time: 14
Reenqueueing errored packet 88028 at time 2294
Reenqueueing errored packet 63919 at time 2294
Reenqueueing errored packet 54576 at time 2295
Additional hops: 3401
Set signal latency stall time: 14
Reenqueueing errored packet 94667 at time 2296
Reenqueueing errored packet 85252 at time 2297
Reenqueueing errored packet 88035 at time 2300
Reenqueueing errored packet 44299 at time 2303
Reenqueueing errored packet 62606 at time 2310
Additional hops: 3406
Set signal latency stall time: 10
Additional hops: 3412
Set signal latency stall time: 12
Additional hops: 3418
Set signal latency stall time: 12
Reenqueueing errored packet 68798 at time 2323
Additional hops: 3425
Set signal latency stall time: 14
Additional hops: 3430
Set signal latency stall time: 10
Reenqueueing errored packet 71447 at time 2330
Additional hops: 3439
Set signal latency stall time: 18
Additional hops: 3445
Set signal latency stall time: 12
Reenqueueing errored packet 99452 at time 2333
Additional hops: 3455
Set signal latency stall time: 20
Reenqueueing errored packet 72321 at time 2337
Reenqueueing errored packet 80475 at time 2338
Additional hops: 3458
Set signal latency stall time: 6
Reenqueueing errored packet 93451 at time 2345
Reenqueueing errored packet 74777 at time 2345
Additional hops: 3465
Set signal latency stall time: 14
Additional hops: 3473
Set signal latency stall time: 16
Reenqueueing errored packet 55936 at time 2351
Reenqueueing errored packet 49027 at time 2354
Additional hops: 3482
Set signal latency stall time: 18
Additional hops: 3485
Set signal latency stall time: 6
Reenqueueing errored packet 89897 at time 2361
Additional hops: 3498
Set signal latency stall time: 26
Reenqueueing errored packet 61301 at time 2363
Reenqueueing errored packet 92711 at time 2365
Reenqueueing errored packet 71228 at time 2375
Additional hops: 3507
Set signal latency stall time: 18
Additional hops: 3517
Set signal latency stall time: 20
Additional hops: 3525
Set signal latency stall time: 16
Reenqueueing errored packet 47145 at time 2388
Additional hops: 3535
Set signal latency stall time: 20
Reenqueueing errored packet 76487 at time 2395
Additional hops: 3538
Set signal latency stall time: 6
Additional hops: 3542
Set signal latency stall time: 8
Additional hops: 3549
Set signal latency stall time: 14
Additional hops: 3553
Set signal latency stall time: 8
Additional hops: 3558
Set signal latency stall time: 10
Reenqueueing errored packet 53814 at time 2400
Additional hops: 3564
Set signal latency stall time: 12
Reenqueueing errored packet 91466 at time 2402
Reenqueueing errored packet 61917 at time 2403
Reenqueueing errored packet 72767 at time 2405
Reenqueueing errored packet 119058 at time 2407
Additional hops: 3570
Set signal latency stall time: 12
Reenqueueing errored packet 72719 at time 2410
Reenqueueing errored packet 93211 at time 2411
Reenqueueing errored packet 82087 at time 2414
Additional hops: 3574
Set signal latency stall time: 8
Additional hops: 3578
Set signal latency stall time: 8
Reenqueueing errored packet 43378 at time 2415
Additional hops: 3588
Set signal latency stall time: 20
Additional hops: 3597
Set signal latency stall time: 18
Additional hops: 3605
Set signal latency stall time: 16
Additional hops: 3609
Set signal latency stall time: 8
Reenqueueing errored packet 99482 at time 2422
Reenqueueing errored packet 119271 at time 2423
Reenqueueing errored packet 108744 at time 2423
Reenqueueing errored packet 74329 at time 2429
Reenqueueing errored packet 55067 at time 2436
Reenqueueing errored packet 54719 at time 2437
Reenqueueing errored packet 81821 at time 2437
Additional hops: 3618
Set signal latency stall time: 18
Additional hops: 3629
Set signal latency stall time: 22
Additional hops: 3638
Set signal latency stall time: 18
Additional hops: 3641
Set signal latency stall time: 6
Reenqueueing errored packet 54248 at time 2456
Reenqueueing errored packet 82849 at time 2460
Additional hops: 3648
Set signal latency stall time: 14
Additional hops: 3659
Set signal latency stall time: 22
Additional hops: 3663
Set signal latency stall time: 8
Additional hops: 3671
Set signal latency stall time: 16
Reenqueueing errored packet 74537 at time 2464
Additional hops: 3676
Set signal latency stall time: 10
Reenqueueing errored packet 54616 at time 2468
Additional hops: 3685
Set signal latency stall time: 18
Reenqueueing errored packet 73979 at time 2471
Additional hops: 3691
Set signal latency stall time: 12
Reenqueueing errored packet 78465 at time 2475
Reenqueueing errored packet 72768 at time 2477
Additional hops: 3696
Set signal latency stall time: 10
Reenqueueing errored packet 93521 at time 2479
Additional hops: 3704
Set signal latency stall time: 16
Reenqueueing errored packet 50343 at time 2484
Reenqueueing errored packet 94746 at time 2485
Reenqueueing errored packet 83644 at time 2489
Reenqueueing errored packet 79644 at time 2489
Additional hops: 3709
Set signal latency stall time: 10
Additional hops: 3713
Set signal latency stall time: 8
Additional hops: 3721
Set signal latency stall time: 16
Additional hops: 3729
Set signal latency stall time: 16
Additional hops: 3731
Set signal latency stall time: 4
Additional hops: 3739
Set signal latency stall time: 16
Reenqueueing errored packet 79928 at time 2499
Reenqueueing errored packet 119892 at time 2500
Additional hops: 3748
Set signal latency stall time: 18
Reenqueueing errored packet 79649 at time 2501
Reenqueueing errored packet 110947 at time 2503
Additional hops: 3759
Set signal latency stall time: 22
Additional hops: 3765
Set signal latency stall time: 12
Additional hops: 3773
Set signal latency stall time: 16
Additional hops: 3780
Set signal latency stall time: 14
Additional hops: 3788
Set signal latency stall time: 16
Reenqueueing errored packet 54016 at time 2510
Additional hops: 3796
Set signal latency stall time: 16
Additional hops: 3798
Set signal latency stall time: 4
Reenqueueing errored packet 84835 at time 2515
Reenqueueing errored packet 95118 at time 2515
Additional hops: 3804
Set signal latency stall time: 12
Additional hops: 3812
Set signal latency stall time: 16
Reenqueueing errored packet 105146 at time 2519
Reenqueueing errored packet 61358 at time 2519
Reenqueueing errored packet 57071 at time 2519
Additional hops: 3822
Set signal latency stall time: 20
Reenqueueing errored packet 58347 at time 2524
Reenqueueing errored packet 94233 at time 2525
Reenqueueing errored packet 72934 at time 2526
Reenqueueing errored packet 60455 at time 2528
Reenqueueing errored packet 75980 at time 2530
Reenqueueing errored packet 60873 at time 2531
Additional hops: 3827
Set signal latency stall time: 10
Reenqueueing errored packet 96740 at time 2535
Additional hops: 3833
Set signal latency stall time: 12
Additional hops: 3843
Set signal latency stall time: 20
Reenqueueing errored packet 97921 at time 2542
Additional hops: 3849
Set signal latency stall time: 12
Reenqueueing errored packet 46740 at time 2544
Additional hops: 3859
Set signal latency stall time: 20
Additional hops: 3872
Set signal latency stall time: 26
Reenqueueing errored packet 79411 at time 2550
Additional hops: 3878
Set signal latency stall time: 12
Additional hops: 3880
Set signal latency stall time: 4
Additional hops: 3889
Set signal latency stall time: 18
Reenqueueing errored packet 76305 at time 2555
Reenqueueing errored packet 129720 at time 2557
Additional hops: 3900
Set signal latency stall time: 22
Reenqueueing errored packet 50139 at time 2561
Additional hops: 3906
Set signal latency stall time: 12
Reenqueueing errored packet 70659 at time 2564
Reenqueueing errored packet 93980 at time 2565
Additional hops: 3916
Set signal latency stall time: 20
Additional hops: 3922
Set signal latency stall time: 12
Reenqueueing errored packet 65962 at time 2572
Reenqueueing errored packet 48711 at time 2574
Reenqueueing errored packet 65931 at time 2576
Additional hops: 3928
Set signal latency stall time: 12
Reenqueueing errored packet 79306 at time 2580
Additional hops: 3938
Set signal latency stall time: 20
Reenqueueing errored packet 64559 at time 2584
Additional hops: 3940
Set signal latency stall time: 4
Additional hops: 3943
Set signal latency stall time: 6
Reenqueueing errored packet 98436 at time 2586
Additional hops: 3953
Set signal latency stall time: 20
Reenqueueing errored packet 112945 at time 2589
Additional hops: 3957
Set signal latency stall time: 8
Additional hops: 3964
Set signal latency stall time: 14
Additional hops: 3976
Set signal latency stall time: 24
Reenqueueing errored packet 99028 at time 2592
Reenqueueing errored packet 105678 at time 2592
Additional hops: 3983
Set signal latency stall time: 14
Reenqueueing errored packet 125887 at time 2598
Additional hops: 3987
Set signal latency stall time: 8
Additional hops: 3990
Set signal latency stall time: 6
Additional hops: 3993
Set signal latency stall time: 6
Reenqueueing errored packet 88596 at time 2603
Reenqueueing errored packet 119559 at time 2605
Reenqueueing errored packet 104030 at time 2606
Reenqueueing errored packet 110033 at time 2607
Reenqueueing errored packet 82137 at time 2607
Reenqueueing errored packet 83761 at time 2608
Reenqueueing errored packet 107307 at time 2610
Additional hops: 4000
Set signal latency stall time: 14
Additional hops: 4006
Set signal latency stall time: 12
Reenqueueing errored packet 51064 at time 2615
Additional hops: 4017
Set signal latency stall time: 22
Reenqueueing errored packet 101327 at time 2625
Reenqueueing errored packet 120686 at time 2626
Additional hops: 4026
Set signal latency stall time: 18
Additional hops: 4031
Set signal latency stall time: 10
Reenqueueing errored packet 83664 at time 2639
Additional hops: 4037
Set signal latency stall time: 12
Additional hops: 4045
Set signal latency stall time: 16
Reenqueueing errored packet 61611 at time 2644
Reenqueueing errored packet 61235 at time 2645
Additional hops: 4055
Set signal latency stall time: 20
Additional hops: 4064
Set signal latency stall time: 18
Reenqueueing errored packet 66102 at time 2652
Additional hops: 4068
Set signal latency stall time: 8
Additional hops: 4072
Set signal latency stall time: 8
Reenqueueing errored packet 60075 at time 2658
Additional hops: 4077
Set signal latency stall time: 10
Reenqueueing errored packet 99796 at time 2665
Reenqueueing errored packet 92853 at time 2665
Additional hops: 4087
Set signal latency stall time: 20
Additional hops: 4096
Set signal latency stall time: 18
Additional hops: 4105
Set signal latency stall time: 18
Reenqueueing errored packet 63141 at time 2668
Reenqueueing errored packet 82237 at time 2670
Additional hops: 4109
Set signal latency stall time: 8
Reenqueueing errored packet 115328 at time 2673
Additional hops: 4114
Set signal latency stall time: 10
Additional hops: 4128
Set signal latency stall time: 28
Reenqueueing errored packet 114886 at time 2680
Additional hops: 4135
Set signal latency stall time: 14
Additional hops: 4139
Set signal latency stall time: 8
Reenqueueing errored packet 79788 at time 2686
Reenqueueing errored packet 60198 at time 2686
Reenqueueing errored packet 129195 at time 2687
Reenqueueing errored packet 49003 at time 2687
Reenqueueing errored packet 116043 at time 2693
Additional hops: 4152
Set signal latency stall time: 26
Reenqueueing errored packet 64650 at time 2698
Additional hops: 4160
Set signal latency stall time: 16
Additional hops: 4172
Set signal latency stall time: 24
Additional hops: 4174
Set signal latency stall time: 4
Additional hops: 4176
Set signal latency stall time: 4
Additional hops: 4180
Set signal latency stall time: 8
Reenqueueing errored packet 137077 at time 2704
Reenqueueing errored packet 114578 at time 2705
Additional hops: 4190
Set signal latency stall time: 20
Reenqueueing errored packet 50767 at time 2708
Additional hops: 4197
Set signal latency stall time: 14
Reenqueueing errored packet 97193 at time 2711
Additional hops: 4206
Set signal latency stall time: 18
Reenqueueing errored packet 61444 at time 2715
Additional hops: 4216
Set signal latency stall time: 20
Reenqueueing errored packet 63343 at time 2720
Reenqueueing errored packet 51152 at time 2723
Additional hops: 4223
Set signal latency stall time: 14
Reenqueueing errored packet 101805 at time 2725
Additional hops: 4230
Set signal latency stall time: 14
Additional hops: 4235
Set signal latency stall time: 10
Reenqueueing errored packet 59306 at time 2728
Additional hops: 4241
Set signal latency stall time: 12
Additional hops: 4246
Set signal latency stall time: 10
Reenqueueing errored packet 84649 at time 2732
Additional hops: 4252
Set signal latency stall time: 12
Reenqueueing errored packet 57481 at time 2737
Reenqueueing errored packet 100850 at time 2738
Reenqueueing errored packet 67580 at time 2739
Reenqueueing errored packet 108827 at time 2740
Additional hops: 4262
Set signal latency stall time: 20
Reenqueueing errored packet 109083 at time 2742
Reenqueueing errored packet 117451 at time 2744
Additional hops: 4264
Set signal latency stall time: 4
Additional hops: 4267
Set signal latency stall time: 6
Reenqueueing errored packet 116549 at time 2747
Reenqueueing errored packet 119111 at time 2749
Reenqueueing errored packet 136272 at time 2751
Additional hops: 4272
Set signal latency stall time: 10
Additional hops: 4276
Set signal latency stall time: 8
Additional hops: 4284
Set signal latency stall time: 16
Additional hops: 4288
Set signal latency stall time: 8
Additional hops: 4296
Set signal latency stall time: 16
Reenqueueing errored packet 79700 at time 2762
Reenqueueing errored packet 107521 at time 2763
Reenqueueing errored packet 132567 at time 2764
Additional hops: 4299
Set signal latency stall time: 6
Reenqueueing errored packet 96228 at time 2768
Reenqueueing errored packet 110717 at time 2772
Reenqueueing errored packet 70067 at time 2773
Additional hops: 4306
Set signal latency stall time: 14
Reenqueueing errored packet 69883 at time 2778
Additional hops: 4318
Set signal latency stall time: 24
Additional hops: 4328
Set signal latency stall time: 20
Additional hops: 4334
Set signal latency stall time: 12
Additional hops: 4336
Set signal latency stall time: 4
Additional hops: 4342
Set signal latency stall time: 12
Reenqueueing errored packet 141630 at time 2787
Reenqueueing errored packet 76940 at time 2788
Additional hops: 4352
Set signal latency stall time: 20
Additional hops: 4361
Set signal latency stall time: 18
Reenqueueing errored packet 129472 at time 2794
Additional hops: 4364
Set signal latency stall time: 6
Reenqueueing errored packet 114022 at time 2799
Reenqueueing errored packet 65428 at time 2800
Reenqueueing errored packet 128750 at time 2802
Reenqueueing errored packet 56971 at time 2803
Additional hops: 4373
Set signal latency stall time: 18
Additional hops: 4382
Set signal latency stall time: 18
Reenqueueing errored packet 104218 at time 2810
Reenqueueing errored packet 107538 at time 2812
Additional hops: 4388
Set signal latency stall time: 12
Additional hops: 4397
Set signal latency stall time: 18
Additional hops: 4404
Set signal latency stall time: 14
Reenqueueing errored packet 101386 at time 2823
Additional hops: 4411
Set signal latency stall time: 14
Additional hops: 4419
Set signal latency stall time: 16
Additional hops: 4428
Set signal latency stall time: 18
Reenqueueing errored packet 68224 at time 2826
Reenqueueing errored packet 131453 at time 2827
Additional hops: 4437
Set signal latency stall time: 18
Reenqueueing errored packet 64484 at time 2830
Reenqueueing errored packet 96747 at time 2833
Additional hops: 4442
Set signal latency stall time: 10
Reenqueueing errored packet 78655 at time 2838
Additional hops: 4454
Set signal latency stall time: 24
Reenqueueing errored packet 85439 at time 2841
Reenqueueing errored packet 103595 at time 2843
Reenqueueing errored packet 141749 at time 2844
Additional hops: 4457
Set signal latency stall time: 6
Reenqueueing errored packet 98185 at time 2848
Reenqueueing errored packet 141934 at time 2852
Additional hops: 4463
Set signal latency stall time: 12
Additional hops: 4476
Set signal latency stall time: 26
Reenqueueing errored packet 59551 at time 2864
Additional hops: 4485
Set signal latency stall time: 18
Additional hops: 4491
Set signal latency stall time: 12
Additional hops: 4499
Set signal latency stall time: 16
Additional hops: 4503
Set signal latency stall time: 8
Additional hops: 4515
Set signal latency stall time: 24
Additional hops: 4522
Set signal latency stall time: 14
Reenqueueing errored packet 104034 at time 2874
Additional hops: 4533
Set signal latency stall time: 22
Reenqueueing errored packet 92746 at time 2875
Additional hops: 4535
Set signal latency stall time: 4
Additional hops: 4538
Set signal latency stall time: 6
Reenqueueing errored packet 135753 at time 2878
Reenqueueing errored packet 111346 at time 2880
Reenqueueing errored packet 89113 at time 2883
Reenqueueing errored packet 132861 at time 2883
Reenqueueing errored packet 69648 at time 2883
Reenqueueing errored packet 98475 at time 2884
Additional hops: 4543
Set signal latency stall time: 10
Additional hops: 4551
Set signal latency stall time: 16
Additional hops: 4556
Set signal latency stall time: 10
Additional hops: 4565
Set signal latency stall time: 18
Reenqueueing errored packet 52481 at time 2890
Additional hops: 4583
Set signal latency stall time: 36
Additional hops: 4588
Set signal latency stall time: 10
Reenqueueing errored packet 58873 at time 2891
Additional hops: 4593
Set signal latency stall time: 10
Reenqueueing errored packet 73415 at time 2895
Reenqueueing errored packet 66525 at time 2897
Additional hops: 4602
Set signal latency stall time: 18
Reenqueueing errored packet 125684 at time 2899
Reenqueueing errored packet 139896 at time 2901
Reenqueueing errored packet 114067 at time 2902
Reenqueueing errored packet 90290 at time 2902
Additional hops: 4611
Set signal latency stall time: 18
Reenqueueing errored packet 90895 at time 2907
Additional hops: 4617
Set signal latency stall time: 12
Additional hops: 4621
Set signal latency stall time: 8
Additional hops: 4629
Set signal latency stall time: 16
Reenqueueing errored packet 110493 at time 2916
Reenqueueing errored packet 125808 at time 2918
Additional hops: 4636
Set signal latency stall time: 14
Additional hops: 4641
Set signal latency stall time: 10
Reenqueueing errored packet 57950 at time 2921
Reenqueueing errored packet 113629 at time 2922
Additional hops: 4647
Set signal latency stall time: 12
Reenqueueing errored packet 34713 at time 2927
Reenqueueing errored packet 140376 at time 2931
Reenqueueing errored packet 127271 at time 2931
Reenqueueing errored packet 139297 at time 2935
Reenqueueing errored packet 109712 at time 2935
Additional hops: 4649
Set signal latency stall time: 4
Additional hops: 4656
Set signal latency stall time: 14
Additional hops: 4661
Set signal latency stall time: 10
Reenqueueing errored packet 139570 at time 2942
Additional hops: 4666
Set signal latency stall time: 10
Additional hops: 4669
Set signal latency stall time: 6
Additional hops: 4677
Set signal latency stall time: 16
Additional hops: 4680
Set signal latency stall time: 6
Additional hops: 4684
Set signal latency stall time: 8
Reenqueueing errored packet 127538 at time 2951
Additional hops: 4696
Set signal latency stall time: 24
Reenqueueing errored packet 120512 at time 2952
Reenqueueing errored packet 113839 at time 2952
Reenqueueing errored packet 141884 at time 2953
Reenqueueing errored packet 106594 at time 2955
Reenqueueing errored packet 133268 at time 2956
Additional hops: 4705
Set signal latency stall time: 18
Reenqueueing errored packet 87334 at time 2963
Additional hops: 4712
Set signal latency stall time: 14
Additional hops: 4716
Set signal latency stall time: 8
Additional hops: 4721
Set signal latency stall time: 10
Reenqueueing errored packet 142666 at time 2973
Additional hops: 4725
Set signal latency stall time: 8
Reenqueueing errored packet 56550 at time 2976
Reenqueueing errored packet 104050 at time 2977
Reenqueueing errored packet 72300 at time 2978
Reenqueueing errored packet 120722 at time 2979
Additional hops: 4733
Set signal latency stall time: 16
Additional hops: 4738
Set signal latency stall time: 10
Reenqueueing errored packet 120034 at time 2983
Additional hops: 4744
Set signal latency stall time: 12
Additional hops: 4755
Set signal latency stall time: 22
Additional hops: 4763
Set signal latency stall time: 16
Additional hops: 4770
Set signal latency stall time: 14
Additional hops: 4780
Set signal latency stall time: 20
Reenqueueing errored packet 88929 at time 2992
Additional hops: 4785
Set signal latency stall time: 10
Reenqueueing errored packet 116551 at time 2997
Additional hops: 4795
Set signal latency stall time: 20
Additional hops: 4799
Set signal latency stall time: 8
Reenqueueing errored packet 120363 at time 3005
Reenqueueing errored packet 131425 at time 3006
Reenqueueing errored packet 97819 at time 3007
Reenqueueing errored packet 130907 at time 3008
Reenqueueing errored packet 71952 at time 3010
Reenqueueing errored packet 93675 at time 3012
Additional hops: 4806
Set signal latency stall time: 14
Additional hops: 4812
Set signal latency stall time: 12
Additional hops: 4821
Set signal latency stall time: 18
Reenqueueing errored packet 94001 at time 3027
Reenqueueing errored packet 129502 at time 3028
Additional hops: 4830
Set signal latency stall time: 18
Reenqueueing errored packet 71733 at time 3041
Additional hops: 4841
Set signal latency stall time: 22
Additional hops: 4846
Set signal latency stall time: 10
Additional hops: 4853
Set signal latency stall time: 14
Reenqueueing errored packet 98576 at time 3050
Reenqueueing errored packet 77076 at time 3054
Additional hops: 4858
Set signal latency stall time: 10
Additional hops: 4864
Set signal latency stall time: 12
Additional hops: 4875
Set signal latency stall time: 22
Reenqueueing errored packet 94152 at time 3064
Reenqueueing errored packet 72158 at time 3064
Reenqueueing errored packet 122571 at time 3066
Reenqueueing errored packet 143282 at time 3068
Additional hops: 4885
Set signal latency stall time: 20
Additional hops: 4894
Set signal latency stall time: 18
Additional hops: 4901
Set signal latency stall time: 14
Additional hops: 4906
Set signal latency stall time: 10
Additional hops: 4912
Set signal latency stall time: 12
Additional hops: 4921
Set signal latency stall time: 18
Reenqueueing errored packet 62372 at time 3085
Reenqueueing errored packet 97115 at time 3088
Reenqueueing errored packet 112689 at time 3091
Reenqueueing errored packet 85073 at time 3091
Reenqueueing errored packet 114028 at time 3099
Additional hops: 4930
Set signal latency stall time: 18
Additional hops: 4940
Set signal latency stall time: 20
Additional hops: 4944
Set signal latency stall time: 8
Reenqueueing errored packet 130215 at time 3118
Reenqueueing errored packet 100111 at time 3119
Additional hops: 4953
Set signal latency stall time: 18
Reenqueueing errored packet 92846 at time 3128
Additional hops: 4960
Set signal latency stall time: 14
Additional hops: 4967
Set signal latency stall time: 14
Additional hops: 4974
Set signal latency stall time: 14
Reenqueueing errored packet 74388 at time 3141
Additional hops: 4980
Set signal latency stall time: 12
Additional hops: 4992
Set signal latency stall time: 24
Additional hops: 4996
Set signal latency stall time: 8
Reenqueueing errored packet 123454 at time 3148
Additional hops: 5006
Set signal latency stall time: 20
Additional hops: 5014
Set signal latency stall time: 16
Reenqueueing errored packet 78181 at time 3153
Additional hops: 5027
Set signal latency stall time: 26
Reenqueueing errored packet 134067 at time 3155
Reenqueueing errored packet 136939 at time 3155
Reenqueueing errored packet 115351 at time 3156
Additional hops: 5034
Set signal latency stall time: 14
Additional hops: 5041
Set signal latency stall time: 14
Additional hops: 5047
Set signal latency stall time: 12
Additional hops: 5056
Set signal latency stall time: 18
Additional hops: 5065
Set signal latency stall time: 18
Reenqueueing errored packet 66935 at time 3169
Reenqueueing errored packet 65739 at time 3169
Additional hops: 5078
Set signal latency stall time: 26
Additional hops: 5083
Set signal latency stall time: 10
Additional hops: 5091
Set signal latency stall time: 16
Reenqueueing errored packet 102027 at time 3175
Reenqueueing errored packet 113779 at time 3176
Additional hops: 5113
Set signal latency stall time: 44
Reenqueueing errored packet 135050 at time 3178
Additional hops: 5118
Set signal latency stall time: 10
Additional hops: 5130
Set signal latency stall time: 24
Reenqueueing errored packet 65751 at time 3181
Reenqueueing errored packet 93665 at time 3183
Reenqueueing errored packet 71907 at time 3183
Reenqueueing errored packet 111021 at time 3189
Additional hops: 5137
Set signal latency stall time: 14
Reenqueueing errored packet 70916 at time 3190
Additional hops: 5150
Set signal latency stall time: 26
Additional hops: 5158
Set signal latency stall time: 16
Reenqueueing errored packet 75545 at time 3197
Additional hops: 5165
Set signal latency stall time: 14
Reenqueueing errored packet 132304 at time 3204
Reenqueueing errored packet 101179 at time 3205
Additional hops: 5171
Set signal latency stall time: 12
Additional hops: 5178
Set signal latency stall time: 14
Reenqueueing errored packet 134303 at time 3215
Additional hops: 5189
Set signal latency stall time: 22
Additional hops: 5196
Set signal latency stall time: 14
Reenqueueing errored packet 114413 at time 3219
Reenqueueing errored packet 29740 at time 3221
Additional hops: 5201
Set signal latency stall time: 10
Additional hops: 5206
Set signal latency stall time: 10
Reenqueueing errored packet 101590 at time 3229
Reenqueueing errored packet 100299 at time 3232
Additional hops: 5215
Set signal latency stall time: 18
Reenqueueing errored packet 148616 at time 3236
Reenqueueing errored packet 148412 at time 3238
Reenqueueing errored packet 73871 at time 3238
Additional hops: 5224
Set signal latency stall time: 18
Reenqueueing errored packet 95920 at time 3251
Additional hops: 5230
Set signal latency stall time: 12
Additional hops: 5235
Set signal latency stall time: 10
Additional hops: 5244
Set signal latency stall time: 18
Additional hops: 5250
Set signal latency stall time: 12
Additional hops: 5262
Set signal latency stall time: 24
Reenqueueing errored packet 100999 at time 3264
[...]
Additional hops: 14399
Set signal latency stall time: 6
Additional hops: 14411
Set signal latency stall time: 24
Additional hops: 14420
Set signal latency stall time: 18
Additional hops: 14426
Set signal latency stall time: 12
Additional hops: 14430
Set signal latency stall time: 8
Reenqueueing errored packet 347857 at time 8973
Additional hops: 14434
Set signal latency stall time: 8
Reenqueueing errored packet 306070 at time 8980
Reenqueueing errored packet 324794 at time 8983
Reenqueueing errored packet 269388 at time 8984
Additional hops: 14439
Set signal latency stall time: 10
Reenqueueing errored packet 181585 at time 8985
Additional hops: 14443
Set signal latency stall time: 8
Reenqueueing errored packet 328864 at time 8988
Reenqueueing errored packet 271906 at time 8988
Additional hops: 14450
Set signal latency stall time: 14
Additional hops: 14458
Set signal latency stall time: 16
Additional hops: 14462
Set signal latency stall time: 8
Additional hops: 14467
Set signal latency stall time: 10
Reenqueueing errored packet 344914 at time 8996
Reenqueueing errored packet 344836 at time 9003
Reenqueueing errored packet 349347 at time 9004
Additional hops: 14475
Set signal latency stall time: 16
Additional hops: 14482
Set signal latency stall time: 14
Additional hops: 14492
Set signal latency stall time: 20
Additional hops: 14502
Set signal latency stall time: 20
Additional hops: 14513
Set signal latency stall time: 22
Additional hops: 14519
Set signal latency stall time: 12
Reenqueueing errored packet 333771 at time 9030
Additional hops: 14525
Set signal latency stall time: 12
Additional hops: 14532
Set signal latency stall time: 14
Additional hops: 14541
Set signal latency stall time: 18
Reenqueueing errored packet 312773 at time 9045
Reenqueueing errored packet 322096 at time 9046
Additional hops: 14551
Set signal latency stall time: 20
Reenqueueing errored packet 271770 at time 9052
Additional hops: 14569
Set signal latency stall time: 36
Additional hops: 14571
Set signal latency stall time: 4
Reenqueueing errored packet 186297 at time 9058
Reenqueueing errored packet 311437 at time 9061
Additional hops: 14582
Set signal latency stall time: 22
Additional hops: 14588
Set signal latency stall time: 12
Additional hops: 14599
Set signal latency stall time: 22
Additional hops: 14607
Set signal latency stall time: 16
Additional hops: 14614
Set signal latency stall time: 14
Reenqueueing errored packet 352187 at time 9083
Additional hops: 14618
Set signal latency stall time: 8
Additional hops: 14624
Set signal latency stall time: 12
Additional hops: 14629
Set signal latency stall time: 10
Reenqueueing errored packet 263621 at time 9091
Additional hops: 14638
Set signal latency stall time: 18
Reenqueueing errored packet 258235 at time 9093
Additional hops: 14641
Set signal latency stall time: 6
Reenqueueing errored packet 331373 at time 9101
Reenqueueing errored packet 272325 at time 9110
Additional hops: 14647
Set signal latency stall time: 12
Additional hops: 14654
Set signal latency stall time: 14
Additional hops: 14658
Set signal latency stall time: 8
Reenqueueing errored packet 335535 at time 9137
Reenqueueing errored packet 343043 at time 9140
Additional hops: 14666
Set signal latency stall time: 16
Additional hops: 14675
Set signal latency stall time: 18
Additional hops: 14677
Set signal latency stall time: 4
Reenqueueing errored packet 347993 at time 9155
Additional hops: 14683
Set signal latency stall time: 12
Additional hops: 14689
Set signal latency stall time: 12
Reenqueueing errored packet 339096 at time 9159
Additional hops: 14694
Set signal latency stall time: 10
Additional hops: 14703
Set signal latency stall time: 18
Reenqueueing errored packet 324713 at time 9169
Reenqueueing errored packet 349907 at time 9171
Additional hops: 14710
Set signal latency stall time: 14
Additional hops: 14718
Set signal latency stall time: 16
Additional hops: 14724
Set signal latency stall time: 12
Reenqueueing errored packet 338999 at time 9183
Additional hops: 14728
Set signal latency stall time: 8
Additional hops: 14733
Set signal latency stall time: 10
Reenqueueing errored packet 285311 at time 9193
Reenqueueing errored packet 335352 at time 9194
Reenqueueing errored packet 337430 at time 9198
Additional hops: 14742
Set signal latency stall time: 18
Additional hops: 14755
Set signal latency stall time: 26
Additional hops: 14764
Set signal latency stall time: 18
Additional hops: 14776
Set signal latency stall time: 24
Reenqueueing errored packet 323408 at time 9224
Additional hops: 14782
Set signal latency stall time: 12
Additional hops: 14788
Set signal latency stall time: 12
Additional hops: 14794
Set signal latency stall time: 12
Additional hops: 14802
Set signal latency stall time: 16
Additional hops: 14809
Set signal latency stall time: 14
Reenqueueing errored packet 296709 at time 9240
Reenqueueing errored packet 326095 at time 9242
Reenqueueing errored packet 176773 at time 9243
Additional hops: 14817
Set signal latency stall time: 16
Reenqueueing errored packet 328994 at time 9249
Additional hops: 14826
Set signal latency stall time: 18
Additional hops: 14835
Set signal latency stall time: 18
Reenqueueing errored packet 213324 at time 9263
Additional hops: 14845
Set signal latency stall time: 20
Additional hops: 14855
Set signal latency stall time: 20
Reenqueueing errored packet 288525 at time 9277
Additional hops: 14863
Set signal latency stall time: 16
Reenqueueing errored packet 326408 at time 9287
Additional hops: 14868
Set signal latency stall time: 10
Additional hops: 14874
Set signal latency stall time: 12
Additional hops: 14878
Set signal latency stall time: 8
Reenqueueing errored packet 336787 at time 9297
Additional hops: 14882
Set signal latency stall time: 8
Reenqueueing errored packet 340238 at time 9308
Additional hops: 14887
Set signal latency stall time: 10
Additional hops: 14895
Set signal latency stall time: 16
Additional hops: 14900
Set signal latency stall time: 10
Additional hops: 14910
Set signal latency stall time: 20
Additional hops: 14914
Set signal latency stall time: 8
Additional hops: 14924
Set signal latency stall time: 20
Reenqueueing errored packet 355102 at time 9322
Reenqueueing errored packet 289144 at time 9329
Reenqueueing errored packet 346570 at time 9330
Additional hops: 14926
Set signal latency stall time: 4
Additional hops: 14931
Set signal latency stall time: 10
Reenqueueing errored packet 368458 at time 9339
Additional hops: 14937
Set signal latency stall time: 12
Additional hops: 14944
Set signal latency stall time: 14
Reenqueueing errored packet 344197 at time 9341
Reenqueueing errored packet 207392 at time 9341
Additional hops: 14951
Set signal latency stall time: 14
Reenqueueing errored packet 355596 at time 9346
Additional hops: 14961
Set signal latency stall time: 20
Reenqueueing errored packet 347185 at time 9355
Reenqueueing errored packet 343566 at time 9360
Additional hops: 14967
Set signal latency stall time: 12
Reenqueueing errored packet 366059 at time 9374
Reenqueueing errored packet 335875 at time 9375
Additional hops: 14975
Set signal latency stall time: 16
Additional hops: 14980
Set signal latency stall time: 10
Additional hops: 14987
Set signal latency stall time: 14
Additional hops: 14991
Set signal latency stall time: 8
Additional hops: 14999
Set signal latency stall time: 16
Additional hops: 15004
Set signal latency stall time: 10
Additional hops: 15010
Set signal latency stall time: 12
Reenqueueing errored packet 334014 at time 9395
Reenqueueing errored packet 341148 at time 9396
Additional hops: 15019
Set signal latency stall time: 18
Additional hops: 15028
Set signal latency stall time: 18
Reenqueueing errored packet 356843 at time 9401
Reenqueueing errored packet 292616 at time 9401
Additional hops: 15035
Set signal latency stall time: 14
Reenqueueing errored packet 347318 at time 9405
Reenqueueing errored packet 359453 at time 9407
Additional hops: 15045
Set signal latency stall time: 20
Reenqueueing errored packet 331209 at time 9416
Reenqueueing errored packet 347164 at time 9417
Reenqueueing errored packet 284180 at time 9430
Additional hops: 15051
Set signal latency stall time: 12
Additional hops: 15058
Set signal latency stall time: 14
Additional hops: 15062
Set signal latency stall time: 8
Additional hops: 15072
Set signal latency stall time: 20
Reenqueueing errored packet 320123 at time 9447
Additional hops: 15078
Set signal latency stall time: 12
Reenqueueing errored packet 344546 at time 9450
Additional hops: 15083
Set signal latency stall time: 10
Reenqueueing errored packet 355857 at time 9451
Additional hops: 15089
Set signal latency stall time: 12
Reenqueueing errored packet 319663 at time 9461
Reenqueueing errored packet 315848 at time 9461
Additional hops: 15097
Set signal latency stall time: 16
Additional hops: 15102
Set signal latency stall time: 10
Reenqueueing errored packet 233840 at time 9465
Additional hops: 15111
Set signal latency stall time: 18
Additional hops: 15126
Set signal latency stall time: 30
Additional hops: 15137
Set signal latency stall time: 22
Reenqueueing errored packet 285855 at time 9472
Reenqueueing errored packet 291571 at time 9475
Reenqueueing errored packet 333057 at time 9478
Additional hops: 15141
Set signal latency stall time: 8
Additional hops: 15145
Set signal latency stall time: 8
Additional hops: 15152
Set signal latency stall time: 14
Reenqueueing errored packet 356711 at time 9506
Additional hops: 15162
Set signal latency stall time: 20
Additional hops: 15167
Set signal latency stall time: 10
Additional hops: 15174
Set signal latency stall time: 14
Additional hops: 15178
Set signal latency stall time: 8
Additional hops: 15187
Set signal latency stall time: 18
Additional hops: 15195
Set signal latency stall time: 16
Additional hops: 15203
Set signal latency stall time: 16
Additional hops: 15212
Set signal latency stall time: 18
Reenqueueing errored packet 343005 at time 9541
Additional hops: 15223
Set signal latency stall time: 22
Additional hops: 15232
Set signal latency stall time: 18
Additional hops: 15239
Set signal latency stall time: 14
Additional hops: 15245
Set signal latency stall time: 12
Additional hops: 15250
Set signal latency stall time: 10
Additional hops: 15255
Set signal latency stall time: 10
Reenqueueing errored packet 347761 at time 9552
Reenqueueing errored packet 299168 at time 9552
Reenqueueing errored packet 290542 at time 9557
Additional hops: 15259
Set signal latency stall time: 8
Reenqueueing errored packet 336406 at time 9560
Additional hops: 15264
Set signal latency stall time: 10
Reenqueueing errored packet 331197 at time 9565
Reenqueueing errored packet 362475 at time 9568
Additional hops: 15268
Set signal latency stall time: 8
Additional hops: 15280
Set signal latency stall time: 24
Reenqueueing errored packet 346342 at time 9575
Additional hops: 15285
Set signal latency stall time: 10
Reenqueueing errored packet 349100 at time 9579
Reenqueueing errored packet 292724 at time 9588
Additional hops: 15290
Set signal latency stall time: 10
Additional hops: 15299
Set signal latency stall time: 18
Additional hops: 15305
Set signal latency stall time: 12
Additional hops: 15313
Set signal latency stall time: 16
Reenqueueing errored packet 347486 at time 9617
Additional hops: 15317
Set signal latency stall time: 8
Additional hops: 15326
Set signal latency stall time: 18
Additional hops: 15331
Set signal latency stall time: 10
Reenqueueing errored packet 356782 at time 9626
Additional hops: 15340
Set signal latency stall time: 18
Reenqueueing errored packet 329712 at time 9630
Additional hops: 15348
Set signal latency stall time: 16
Reenqueueing errored packet 356965 at time 9631
Additional hops: 15354
Set signal latency stall time: 12
Additional hops: 15356
Set signal latency stall time: 4
Reenqueueing errored packet 369880 at time 9635
Additional hops: 15363
Set signal latency stall time: 14
Additional hops: 15367
Set signal latency stall time: 8
Reenqueueing errored packet 363363 at time 9638
Additional hops: 15371
Set signal latency stall time: 8
Reenqueueing errored packet 333302 at time 9642
Additional hops: 15374
Set signal latency stall time: 6
Reenqueueing errored packet 350820 at time 9647
Additional hops: 15380
Set signal latency stall time: 12
Additional hops: 15387
Set signal latency stall time: 14
Reenqueueing errored packet 348686 at time 9650
Additional hops: 15397
Set signal latency stall time: 20
Reenqueueing errored packet 365324 at time 9653
Reenqueueing errored packet 301604 at time 9660
Additional hops: 15405
Set signal latency stall time: 16
Additional hops: 15411
Set signal latency stall time: 12
Additional hops: 15417
Set signal latency stall time: 12
Reenqueueing errored packet 331052 at time 9673
Additional hops: 15428
Set signal latency stall time: 22
Reenqueueing errored packet 376525 at time 9676
Reenqueueing errored packet 344407 at time 9677
Additional hops: 15436
Set signal latency stall time: 16
Additional hops: 15444
Set signal latency stall time: 16
Additional hops: 15453
Set signal latency stall time: 18
Additional hops: 15458
Set signal latency stall time: 10
Additional hops: 15466
Set signal latency stall time: 16
Reenqueueing errored packet 347718 at time 9695
Reenqueueing errored packet 292921 at time 9698
Additional hops: 15475
Set signal latency stall time: 18
Additional hops: 15481
Set signal latency stall time: 12
Reenqueueing errored packet 348076 at time 9709
Reenqueueing errored packet 362414 at time 9711
Additional hops: 15490
Set signal latency stall time: 18
Additional hops: 15495
Set signal latency stall time: 10
Reenqueueing errored packet 369009 at time 9718
Reenqueueing errored packet 346458 at time 9718
Reenqueueing errored packet 300051 at time 9730
Additional hops: 15498
Set signal latency stall time: 6
Additional hops: 15507
Set signal latency stall time: 18
Additional hops: 15514
Set signal latency stall time: 14
Reenqueueing errored packet 350372 at time 9738
Additional hops: 15523
Set signal latency stall time: 18
Reenqueueing errored packet 350859 at time 9748
Additional hops: 15532
Set signal latency stall time: 18
Reenqueueing errored packet 333343 at time 9750
Additional hops: 15539
Set signal latency stall time: 14
Additional hops: 15546
Set signal latency stall time: 14
Reenqueueing errored packet 340474 at time 9759
Additional hops: 15553
Set signal latency stall time: 14
Additional hops: 15557
Set signal latency stall time: 8
Reenqueueing errored packet 378828 at time 9765
Additional hops: 15562
Set signal latency stall time: 10
Additional hops: 15570
Set signal latency stall time: 16
Reenqueueing errored packet 349447 at time 9769
Reenqueueing errored packet 365949 at time 9771
Reenqueueing errored packet 348625 at time 9777
Reenqueueing errored packet 352668 at time 9777
Additional hops: 15578
Set signal latency stall time: 16
Additional hops: 15584
Set signal latency stall time: 12
Reenqueueing errored packet 341933 at time 9785
Reenqueueing errored packet 357790 at time 9797
Reenqueueing errored packet 303421 at time 9797
Additional hops: 15586
Set signal latency stall time: 4
Additional hops: 15591
Set signal latency stall time: 10
Additional hops: 15598
Set signal latency stall time: 14
Additional hops: 15604
Set signal latency stall time: 12
Reenqueueing errored packet 364818 at time 9817
Reenqueueing errored packet 275767 at time 9821
Additional hops: 15607
Set signal latency stall time: 6
Additional hops: 15613
Set signal latency stall time: 12
Reenqueueing errored packet 369882 at time 9824
Additional hops: 15616
Set signal latency stall time: 6
Reenqueueing errored packet 319297 at time 9832
Reenqueueing errored packet 350267 at time 9836
Additional hops: 15630
Set signal latency stall time: 28
Additional hops: 15640
Set signal latency stall time: 20
Additional hops: 15649
Set signal latency stall time: 18
Additional hops: 15661
Set signal latency stall time: 24
Additional hops: 15672
Set signal latency stall time: 22
Additional hops: 15676
Set signal latency stall time: 8
Reenqueueing errored packet 362786 at time 9858
Reenqueueing errored packet 305329 at time 9864
Additional hops: 15684
Set signal latency stall time: 16
Additional hops: 15693
Set signal latency stall time: 18
Additional hops: 15697
Set signal latency stall time: 8
Reenqueueing errored packet 383169 at time 9880
Additional hops: 15708
Set signal latency stall time: 22
Reenqueueing errored packet 338278 at time 9887
Additional hops: 15718
Set signal latency stall time: 20
Additional hops: 15725
Set signal latency stall time: 14
Additional hops: 15728
Set signal latency stall time: 6
Additional hops: 15734
Set signal latency stall time: 12
Reenqueueing errored packet 371613 at time 9900
Reenqueueing errored packet 365643 at time 9907
Additional hops: 15743
Set signal latency stall time: 18
Reenqueueing errored packet 345878 at time 9910
Additional hops: 15751
Set signal latency stall time: 16
Additional hops: 15758
Set signal latency stall time: 14
Additional hops: 15764
Set signal latency stall time: 12
Reenqueueing errored packet 346946 at time 9928
Additional hops: 15775
Set signal latency stall time: 22
Additional hops: 15786
Set signal latency stall time: 22
Additional hops: 15797
Set signal latency stall time: 22
Reenqueueing errored packet 322119 at time 9939
Additional hops: 15803
Set signal latency stall time: 12
Additional hops: 15811
Set signal latency stall time: 16
Reenqueueing errored packet 371368 at time 9953
Additional hops: 15819
Set signal latency stall time: 16
Additional hops: 15824
Set signal latency stall time: 10
Reenqueueing errored packet 233180 at time 9959
Additional hops: 15830
Set signal latency stall time: 12
Additional hops: 15839
Set signal latency stall time: 18
Additional hops: 15844
Set signal latency stall time: 10
Additional hops: 15848
Set signal latency stall time: 8
Additional hops: 15856
Set signal latency stall time: 16
Reenqueueing errored packet 360981 at time 9966
Additional hops: 15863
Set signal latency stall time: 14
Reenqueueing errored packet 357412 at time 9970
Reenqueueing errored packet 291505 at time 9970
Additional hops: 15875
Set signal latency stall time: 24
Additional hops: 15880
Set signal latency stall time: 10
Reenqueueing errored packet 307704 at time 9980
Additional hops: 15886
Set signal latency stall time: 12
Reenqueueing errored packet 354243 at time 9984
Additional hops: 15895
Set signal latency stall time: 18
Additional hops: 15900
Set signal latency stall time: 10
Reenqueueing errored packet 360986 at time 9989
Additional hops: 15907
Set signal latency stall time: 14
Additional hops: 15914
Set signal latency stall time: 14
Reenqueueing errored packet 305448 at time 9994
Additional hops: 15924
Set signal latency stall time: 20
Additional hops: 15928
Set signal latency stall time: 8
Reenqueueing errored packet 373797 at time 9998
Class 0:
Packet latency average = 1422.93
	minimum = 5
	maximum = 8560
Network latency average = 1295.21
	minimum = 5
	maximum = 6306
Slowest packet = 10885
Flit latency average = 1295.21
	minimum = 5
	maximum = 6306
Slowest flit = 181803
Fragmentation average = 0
	minimum = 0
	maximum = 0
Injected packet rate average = 0.614184
	minimum = 0.4436 (at node 49)
	maximum = 0.8112 (at node 44)
Accepted packet rate average = 0.504795
	minimum = 0.4864 (at node 21)
	maximum = 0.5216 (at node 28)
Injected flit rate average = 0.614184
	minimum = 0.4436 (at node 49)
	maximum = 0.8112 (at node 44)
Accepted flit rate average= 0.504795
	minimum = 0.4864 (at node 21)
	maximum = 0.5216 (at node 28)
Injected packet length average = 1
Accepted packet length average = 1
Total in-flight flits = 70530 (0 measured)
latency change    = 1
throughput change = 1
Average latency for class 0 exceeded 500 cycles. Aborting simulation.
Too many sample periods needed to converge
Simulation unstable, ending ...
Total run time 61.423
