BEGIN Configuration File: examples/ecc_mesh88_config_1_0.010_link_3
// $Id$

// Copyright (c) 2007-2015, Trustees of The Leland Stanford Junior University
// All rights reserved.
//
// Redistribution and use in source and binary forms, with or without
// modification, are permitted provided that the following conditions are met:
//
// Redistributions of source code must retain the above copyright notice, this
// list of conditions and the following disclaimer.
// Redistributions in binary form must reproduce the above copyright notice,
// this list of conditions and the following disclaimer in the documentation
// and/or other materials provided with the distribution.
//
// THIS SOFTWARE IS PROVIDED BY THE COPYRIGHT HOLDERS AND CONTRIBUTORS "AS IS"
// AND ANY EXPRESS OR IMPLIED WARRANTIES, INCLUDING, BUT NOT LIMITED TO, THE
// IMPLIED WARRANTIES OF MERCHANTABILITY AND FITNESS FOR A PARTICULAR PURPOSE
// ARE DISCLAIMED. IN NO EVENT SHALL THE COPYRIGHT OWNER OR CONTRIBUTORS BE
// LIABLE FOR ANY DIRECT, INDIRECT, INCIDENTAL, SPECIAL, EXEMPLARY, OR
// CONSEQUENTIAL DAMAGES (INCLUDING, BUT NOT LIMITED TO, PROCUREMENT OF
// SUBSTITUTE GOODS OR SERVICES; LOSS OF USE, DATA, OR PROFITS; OR BUSINESS
// INTERRUPTION) HOWEVER CAUSED AND ON ANY THEORY OF LIABILITY, WHETHER IN
// CONTRACT, STRICT LIABILITY, OR TORT (INCLUDING NEGLIGENCE OR OTHERWISE)
// ARISING IN ANY WAY OUT OF THE USE OF THIS SOFTWARE, EVEN IF ADVISED OF THE
// POSSIBILITY OF SUCH DAMAGE.

// Dragonfly
//




vc_buf_size = 256;


wait_for_tail_credit = 0;

//
// Router architecture
//
vc_allocator = separable_input_first; 
sw_allocator = separable_input_first;
alloc_iters  = 1;

credit_delay   = 2;
routing_delay  = 0;
vc_alloc_delay = 1;
sw_alloc_delay = 1;
st_final_delay = 1;

input_speedup     = 1;
output_speedup    = 1;
internal_speedup  = 2.0;


warmup_periods = 3;
sim_count          = 1;

sample_period  = 10000;  


routing_function = dor;
num_vcs     = 2;

priority = none;
traffic       = uniform; 

injection_rate = 0.01;
packet_size = 1;
injection_rate_uses_flits = 1;

topology = mesh;

k  = 8;
n  = 2;

fer = 3;
ecc = link;

watch_out=-;
//watch_file = watch.txt;

ecc = link;

stats_out = examples/ecc_mesh88_config_1_0.010_link_3.m;

END Configuration File: examples/ecc_mesh88_config_1_0.010_link_3
7
Received nack credit for flit 44
Requeued flit 44
5
Received nack credit for flit 298
Requeued flit 298
1
Received nack credit for flit 345
Requeued flit 345
1
2
Received nack credit for flit 791
Requeued flit 791
Received nack credit for flit 701
Requeued flit 701
1
Received nack credit for flit 875
Requeued flit 875
1
Received nack credit for flit 1093
Requeued flit 1093
4
Received nack credit for flit 1259
Requeued flit 1259
1
Received nack credit for flit 1287
Requeued flit 1287
1
Received nack credit for flit 1353
Requeued flit 1353
4
Received nack credit for flit 1496
Requeued flit 1496
4
Received nack credit for flit 1743
Requeued flit 1743
4
Received nack credit for flit 2070
Requeued flit 2070
1
Received nack credit for flit 2218
Requeued flit 2218
1
Received nack credit for flit 2286
Requeued flit 2286
4
Received nack credit for flit 2305
Requeued flit 2305
1
Received nack credit for flit 2434
Requeued flit 2434
1
Received nack credit for flit 2554
Requeued flit 2554
6
Received nack credit for flit 3248
Requeued flit 3248
4
Received nack credit for flit 3352
Requeued flit 3352
5
Received nack credit for flit 3404
Requeued flit 3404
1
1
1
6
Received nack credit for flit 3524
Requeued flit 3524
Received nack credit for flit 3515
Requeued flit 3515
4
Received nack credit for flit 3522
Requeued flit 3522
Received nack credit for flit 3589
Requeued flit 3589
3
Received nack credit for flit 3650
Requeued flit 3650
1
Received nack credit for flit 4041
Requeued flit 4041
1
Received nack credit for flit 4257
Requeued flit 4257
1
Received nack credit for flit 4350
Requeued flit 4350
1
Received nack credit for flit 4413
Requeued flit 4413
4
Received nack credit for flit 4549
Requeued flit 4549
4
7
Received nack credit for flit 5419
Requeued flit 5419
Received nack credit for flit 5393
Requeued flit 5393
6
Received nack credit for flit 5716
Requeued flit 5716
5
1
Received nack credit for flit 6034
Requeued flit 6034
Received nack credit for flit 6024
Requeued flit 6024
2
Received nack credit for flit 6226
Requeued flit 6226
Class 0:
Packet latency average = 21.0906
	minimum = 5
	maximum = 284
Network latency average = 21.0906
	minimum = 5
	maximum = 284
Slowest packet = 701
Flit latency average = 21.0906
	minimum = 5
	maximum = 284
Slowest flit = 701
Fragmentation average = 0
	minimum = 0
	maximum = 0
Injected packet rate average = 0.00994219
	minimum = 0.0076 (at node 62)
	maximum = 0.0126 (at node 27)
Accepted packet rate average = 0.00991875
	minimum = 0.008 (at node 52)
	maximum = 0.0121 (at node 34)
Injected flit rate average = 0.00994219
	minimum = 0.0076 (at node 62)
	maximum = 0.0126 (at node 27)
Accepted flit rate average= 0.00991875
	minimum = 0.008 (at node 52)
	maximum = 0.0121 (at node 34)
Injected packet length average = 1
Accepted packet length average = 1
Total in-flight flits = 15 (0 measured)
latency change    = 1
throughput change = 1
6
Received nack credit for flit 6353
Requeued flit 6353
1
Received nack credit for flit 6387
Requeued flit 6387
7
Received nack credit for flit 6685
Requeued flit 6685
1
Received nack credit for flit 6906
Requeued flit 6906
11
Received nack credit for flit 7304
Requeued flit 7304
1
Received nack credit for flit 7421
Requeued flit 7421
4
Received nack credit for flit 7682
Requeued flit 7682
6
Received nack credit for flit 7804
Requeued flit 7804
1
Received nack credit for flit 7836
Requeued flit 7836
5
1
Received nack credit for flit 7929
Requeued flit 7929
1
Received nack credit for flit 8051
Requeued flit 8051
Received nack credit for flit 7982
Requeued flit 7982
5
7
Received nack credit for flit 8327
Requeued flit 8327
Received nack credit for flit 8311
Requeued flit 8311
3
Received nack credit for flit 8497
Requeued flit 8497
1
4
Received nack credit for flit 8732
Requeued flit 8732
Received nack credit for flit 8811
Requeued flit 8811
1
Received nack credit for flit 8864
Requeued flit 8864
7
Received nack credit for flit 8953
Requeued flit 8953
5
Received nack credit for flit 9040
Requeued flit 9040
1
Received nack credit for flit 9468
Requeued flit 9468
5
Received nack credit for flit 9514
Requeued flit 9514
4
3
Received nack credit for flit 9626
Requeued flit 9626
Received nack credit for flit 9670
Requeued flit 9670
8
Received nack credit for flit 9715
Requeued flit 9715
2
Received nack credit for flit 9828
Requeued flit 9828
3
Received nack credit for flit 9943
Requeued flit 9943
4
Received nack credit for flit 10215
Requeued flit 10215
1
Received nack credit for flit 10423
Requeued flit 10423
1
Received nack credit for flit 10500
Requeued flit 10500
1
Received nack credit for flit 10849
Requeued flit 10849
4
Received nack credit for flit 10937
Requeued flit 10937
6
Received nack credit for flit 11181
Requeued flit 11181
3
5
Received nack credit for flit 11282
Requeued flit 11282
7
Received nack credit for flit 11305
Requeued flit 11305
1
Received nack credit for flit 11397
Requeued flit 11397
Received nack credit for flit 11548
Requeued flit 11548
1
3
Received nack credit for flit 11598
Requeued flit 11598
Received nack credit for flit 11613
Requeued flit 11613
9
Received nack credit for flit 11667
Requeued flit 11667
4
6
Received nack credit for flit 11870
Requeued flit 11870
Received nack credit for flit 11853
Requeued flit 11853
3
Received nack credit for flit 12005
Requeued flit 12005
1
Received nack credit for flit 12255
Requeued flit 12255
3
Received nack credit for flit 12322
Requeued flit 12322
Class 0:
Packet latency average = 21.0689
	minimum = 5
	maximum = 300
Network latency average = 21.0689
	minimum = 5
	maximum = 300
Slowest packet = 11305
Flit latency average = 21.0689
	minimum = 5
	maximum = 300
Slowest flit = 11305
Fragmentation average = 0
	minimum = 0
	maximum = 0
Injected packet rate average = 0.00996563
	minimum = 0.0083 (at node 58)
	maximum = 0.0119 (at node 27)
Accepted packet rate average = 0.00995547
	minimum = 0.00825 (at node 36)
	maximum = 0.0113 (at node 14)
Injected flit rate average = 0.00996563
	minimum = 0.0083 (at node 58)
	maximum = 0.0119 (at node 27)
Accepted flit rate average= 0.00995547
	minimum = 0.00825 (at node 36)
	maximum = 0.0113 (at node 14)
Injected packet length average = 1
Accepted packet length average = 1
Total in-flight flits = 13 (0 measured)
latency change    = 0.00102896
throughput change = 0.0036883
6
Received nack credit for flit 13111
Requeued flit 13111
7
2
Received nack credit for flit 13217
Requeued flit 13217
7
Received nack credit for flit 13174
Requeued flit 13174
Received nack credit for flit 13276
Requeued flit 13276
1
Received nack credit for flit 13475
Requeued flit 13475
4
Received nack credit for flit 13635
Requeued flit 13635
4
Received nack credit for flit 13669
Requeued flit 13669
4
Received nack credit for flit 13872
Requeued flit 13872
4
Received nack credit for flit 14151
Requeued flit 14151
1
Received nack credit for flit 14234
Requeued flit 14234
4
Received nack credit for flit 14336
Requeued flit 14336
4
Received nack credit for flit 14401
Requeued flit 14401
1
Received nack credit for flit 14922
Requeued flit 14922
1
Received nack credit for flit 15228
Requeued flit 15228
1
1
Received nack credit for flit 15278
Requeued flit 15278
Received nack credit for flit 15269
Requeued flit 15269
1
Received nack credit for flit 15434
Requeued flit 15434
1
Received nack credit for flit 15772
Requeued flit 15772
3
Received nack credit for flit 15804
Requeued flit 15804
5
Received nack credit for flit 15931
Requeued flit 15931
11
1
Received nack credit for flit 16027
Requeued flit 16027
3
3
Received nack credit for flit 15990
Requeued flit 15990
6
Received nack credit for flit 16084
Requeued flit 16084
Received nack credit for flit 16105
Requeued flit 16105
Received nack credit for flit 16129
Requeued flit 16129
4
Received nack credit for flit 16396
Requeued flit 16396
5
Received nack credit for flit 16474
Requeued flit 16474
2
Received nack credit for flit 16643
Requeued flit 16643
8
7
7
1
Received nack credit for flit 16872
Requeued flit 16872
8
Received nack credit for flit 16779
Requeued flit 16779
Received nack credit for flit 16883
Requeued flit 16883
Received nack credit for flit 16885
Requeued flit 16885
3
6
Received nack credit for flit 16885
Requeued flit 16885
2
Received nack credit for flit 17034
Requeued flit 17034
Received nack credit for flit 16931
Requeued flit 16931
6
Received nack credit for flit 17323
Requeued flit 17323
4
Received nack credit for flit 17408
Requeued flit 17408
3
Received nack credit for flit 17449
Requeued flit 17449
6
Received nack credit for flit 17512
Requeued flit 17512
9
1
Received nack credit for flit 17879
Requeued flit 17879
1
Received nack credit for flit 17922
Requeued flit 17922
Received nack credit for flit 17898
Requeued flit 17898
5
1
Received nack credit for flit 18150
Requeued flit 18150
Received nack credit for flit 18082
Requeued flit 18082
1
Received nack credit for flit 18237
Requeued flit 18237
1
2
1
Received nack credit for flit 18467
Requeued flit 18467
Received nack credit for flit 18503
Requeued flit 18503
Received nack credit for flit 18550
Requeued flit 18550
11
5
1
Received nack credit for flit 18753
Requeued flit 18753
Received nack credit for flit 18674
Requeued flit 18674
2
1
Received nack credit for flit 18821
Requeued flit 18821
1
Received nack credit for flit 18964
Requeued flit 18964
1
2
Received nack credit for flit 19082
Requeued flit 19082
Received nack credit for flit 18976
Requeued flit 18976
Received nack credit for flit 18914
Requeued flit 18914
1
Class 0:
Packet latency average = 21.6389
	minimum = 5
	maximum = 362
Network latency average = 21.6389
	minimum = 5
	maximum = 362
Slowest packet = 18914
Flit latency average = 21.6389
	minimum = 5
	maximum = 362
Slowest flit = 18914
Fragmentation average = 0
	minimum = 0
	maximum = 0
Injected packet rate average = 0.0100141
	minimum = 0.0076 (at node 29)
	maximum = 0.0121 (at node 48)
Accepted packet rate average = 0.0100141
	minimum = 0.0082 (at node 16)
	maximum = 0.0122 (at node 10)
Injected flit rate average = 0.0100141
	minimum = 0.0076 (at node 29)
	maximum = 0.0121 (at node 48)
Accepted flit rate average= 0.0100141
	minimum = 0.0082 (at node 16)
	maximum = 0.0122 (at node 10)
Injected packet length average = 1
Accepted packet length average = 1
Total in-flight flits = 13 (0 measured)
latency change    = 0.0263435
throughput change = 0.00585115
Warmed up ...Time used is 30000 cycles
Received nack credit for flit 19148
Requeued flit 19148
Received nack credit for flit 19080
Requeued flit 19080
1
Received nack credit for flit 19311
Requeued flit 19311
1
5
Received nack credit for flit 19436
Requeued flit 19436
Received nack credit for flit 19443
Requeued flit 19443
5
Received nack credit for flit 20302
Requeued flit 20302
5
Received nack credit for flit 20358
Requeued flit 20358
4
Received nack credit for flit 20553
Requeued flit 20553
1
6
Received nack credit for flit 20666
Requeued flit 20666
Received nack credit for flit 20661
Requeued flit 20661
4
Received nack credit for flit 20841
Requeued flit 20841
1
Received nack credit for flit 20856
Requeued flit 20856
2
Received nack credit for flit 20956
Requeued flit 20956
1
1
2
Received nack credit for flit 21214
Requeued flit 21214
Received nack credit for flit 21137
Requeued flit 21137
1
Received nack credit for flit 21184
Requeued flit 21184
Received nack credit for flit 21275
Requeued flit 21275
2
Received nack credit for flit 21315
Requeued flit 21315
6
2
Received nack credit for flit 21656
Requeued flit 21656
Received nack credit for flit 21607
Requeued flit 21607
1
1
1
Received nack credit for flit 22048
Requeued flit 22048
Received nack credit for flit 21990
Requeued flit 21990
Received nack credit for flit 22075
Requeued flit 22075
1
Received nack credit for flit 22319
Requeued flit 22319
1
Received nack credit for flit 22601
Requeued flit 22601
4
Received nack credit for flit 22953
Requeued flit 22953
1
Received nack credit for flit 23385
Requeued flit 23385
1
Received nack credit for flit 23461
Requeued flit 23461
1
6
Received nack credit for flit 23652
Requeued flit 23652
Received nack credit for flit 23623
Requeued flit 23623
1
3
Received nack credit for flit 23827
Requeued flit 23827
Received nack credit for flit 23828
Requeued flit 23828
9
Received nack credit for flit 23968
Requeued flit 23968
9
1
Received nack credit for flit 23995
Requeued flit 23995
Received nack credit for flit 24011
Requeued flit 24011
7
Received nack credit for flit 24175
Requeued flit 24175
8
Received nack credit for flit 24284
Requeued flit 24284
2
Received nack credit for flit 24776
Requeued flit 24776
3
Received nack credit for flit 24799
Requeued flit 24799
1
Received nack credit for flit 24839
Requeued flit 24839
6
Received nack credit for flit 24914
Requeued flit 24914
1
Received nack credit for flit 25002
Requeued flit 25002
1
Received nack credit for flit 25064
Requeued flit 25064
10
Received nack credit for flit 25421
Requeued flit 25421
3
Class 0:
Packet latency average = 21.2913
	minimum = 5
	maximum = 200
Network latency average = 21.2913
	minimum = 5
	maximum = 200
Slowest packet = 21607
Flit latency average = 21.33
	minimum = 5
	maximum = 200
Slowest flit = 21607
Fragmentation average = 0
	minimum = 0
	maximum = 0
Injected packet rate average = 0.009975
	minimum = 0.0074 (at node 63)
	maximum = 0.0122 (at node 53)
Accepted packet rate average = 0.00997187
	minimum = 0.0079 (at node 43)
	maximum = 0.0118 (at node 10)
Injected flit rate average = 0.009975
	minimum = 0.0074 (at node 63)
	maximum = 0.0122 (at node 53)
Accepted flit rate average= 0.00997187
	minimum = 0.0079 (at node 43)
	maximum = 0.0118 (at node 10)
Injected packet length average = 1
Accepted packet length average = 1
Total in-flight flits = 15 (15 measured)
latency change    = 0.0163302
throughput change = 0.00423065
6
2
1
Received nack credit for flit 25602
Requeued flit 25602
Received nack credit for flit 25553
Requeued flit 25553
Received nack credit for flit 25584
Requeued flit 25584
Received nack credit for flit 25509
Requeued flit 25509
7
1
Received nack credit for flit 25875
Requeued flit 25875
Received nack credit for flit 25769
Requeued flit 25769
3
1
Received nack credit for flit 25940
Requeued flit 25940
Received nack credit for flit 25992
Requeued flit 25992
5
2
Received nack credit for flit 26207
Requeued flit 26207
Received nack credit for flit 26217
Requeued flit 26217
1
Received nack credit for flit 26669
Requeued flit 26669
1
Received nack credit for flit 26908
Requeued flit 26908
5
Received nack credit for flit 27008
Requeued flit 27008
1
Received nack credit for flit 27266
Requeued flit 27266
1
Received nack credit for flit 27444
Requeued flit 27444
4
Received nack credit for flit 27540
Requeued flit 27540
3
5
4
Received nack credit for flit 27651
Requeued flit 27651
3
Received nack credit for flit 27658
Requeued flit 27658
Received nack credit for flit 27682
Requeued flit 27682
Received nack credit for flit 27610
Requeued flit 27610
4
Received nack credit for flit 27995
Requeued flit 27995
3
1
Received nack credit for flit 28201
Requeued flit 28201
Received nack credit for flit 28150
Requeued flit 28150
6
Received nack credit for flit 28662
Requeued flit 28662
1
Received nack credit for flit 28834
Requeued flit 28834
1
Received nack credit for flit 28874
Requeued flit 28874
3
1
Received nack credit for flit 28977
Requeued flit 28977
Received nack credit for flit 28987
Requeued flit 28987
2
8
Received nack credit for flit 29608
Requeued flit 29608
Received nack credit for flit 29502
Requeued flit 29502
13
Received nack credit for flit 29713
Requeued flit 29713
1
Received nack credit for flit 29863
Requeued flit 29863
7
Received nack credit for flit 30161
Requeued flit 30161
3
Received nack credit for flit 30251
Requeued flit 30251
7
Received nack credit for flit 30538
Requeued flit 30538
8
1
Received nack credit for flit 30756
Requeued flit 30756
Received nack credit for flit 30641
Requeued flit 30641
4
Received nack credit for flit 30807
Requeued flit 30807
8
Received nack credit for flit 30874
Requeued flit 30874
7
Received nack credit for flit 30960
Requeued flit 30960
6
1
Received nack credit for flit 30992
Requeued flit 30992
Received nack credit for flit 31002
Requeued flit 31002
2
Received nack credit for flit 31119
Requeued flit 31119
1
Received nack credit for flit 31151
Requeued flit 31151
3
Received nack credit for flit 31288
Requeued flit 31288
2
Received nack credit for flit 31441
Requeued flit 31441
2
Received nack credit for flit 31625
Requeued flit 31625
1
Received nack credit for flit 31711
Requeued flit 31711
Class 0:
Packet latency average = 21.3479
	minimum = 5
	maximum = 291
Network latency average = 21.3479
	minimum = 5
	maximum = 291
Slowest packet = 25509
Flit latency average = 21.3672
	minimum = 5
	maximum = 291
Slowest flit = 25509
Fragmentation average = 0
	minimum = 0
	maximum = 0
Injected packet rate average = 0.00996719
	minimum = 0.0086 (at node 30)
	maximum = 0.01155 (at node 53)
Accepted packet rate average = 0.00996875
	minimum = 0.0084 (at node 17)
	maximum = 0.0112 (at node 8)
Injected flit rate average = 0.00996719
	minimum = 0.0086 (at node 30)
	maximum = 0.01155 (at node 53)
Accepted flit rate average= 0.00996875
	minimum = 0.0084 (at node 17)
	maximum = 0.0112 (at node 8)
Injected packet length average = 1
Accepted packet length average = 1
Total in-flight flits = 11 (11 measured)
latency change    = 0.00265461
throughput change = 0.00031348
1
4
Received nack credit for flit 32007
Requeued flit 32007
Received nack credit for flit 32010
Requeued flit 32010
6
2
Received nack credit for flit 32112
Requeued flit 32112
Received nack credit for flit 32065
Requeued flit 32065
1
Received nack credit for flit 32412
Requeued flit 32412
1
Received nack credit for flit 32704
Requeued flit 32704
3
Received nack credit for flit 33239
Requeued flit 33239
1
Received nack credit for flit 33523
Requeued flit 33523
2
Received nack credit for flit 33814
Requeued flit 33814
1
Received nack credit for flit 33876
Requeued flit 33876
3
Received nack credit for flit 34066
Requeued flit 34066
6
4
Received nack credit for flit 34176
Requeued flit 34176
2
Received nack credit for flit 34171
Requeued flit 34171
Received nack credit for flit 34257
Requeued flit 34257
10
Received nack credit for flit 34478
Requeued flit 34478
3
3
Received nack credit for flit 34670
Requeued flit 34670
Received nack credit for flit 34724
Requeued flit 34724
1
Received nack credit for flit 35184
Requeued flit 35184
6
Received nack credit for flit 35246
Requeued flit 35246
5
Received nack credit for flit 35261
Requeued flit 35261
4
Received nack credit for flit 35517
Requeued flit 35517
10
Received nack credit for flit 35578
Requeued flit 35578
4
Received nack credit for flit 35653
Requeued flit 35653
7
Received nack credit for flit 36174
Requeued flit 36174
1
Received nack credit for flit 36207
Requeued flit 36207
6
Received nack credit for flit 36482
Requeued flit 36482
2
2
Received nack credit for flit 36570
Requeued flit 36570
Received nack credit for flit 36541
Requeued flit 36541
2
Received nack credit for flit 36650
Requeued flit 36650
9
Received nack credit for flit 36727
Requeued flit 36727
2
4
Received nack credit for flit 37008
Requeued flit 37008
Received nack credit for flit 36927
Requeued flit 36927
3
Received nack credit for flit 37361
Requeued flit 37361
9
7
4
Received nack credit for flit 37560
Requeued flit 37560
Received nack credit for flit 37589
Requeued flit 37589
Received nack credit for flit 37526
Requeued flit 37526
4
Received nack credit for flit 37677
Requeued flit 37677
4
Received nack credit for flit 38133
Requeued flit 38133
1
1
Received nack credit for flit 38366
Requeued flit 38366
Class 0:
Packet latency average = 21.2988
	minimum = 5
	maximum = 291
Network latency average = 21.2988
	minimum = 5
	maximum = 291
Slowest packet = 25509
Flit latency average = 21.3116
	minimum = 5
	maximum = 291
Slowest flit = 25509
Fragmentation average = 0
	minimum = 0
	maximum = 0
Injected packet rate average = 0.010013
	minimum = 0.00833333 (at node 5)
	maximum = 0.0113 (at node 53)
Accepted packet rate average = 0.0100135
	minimum = 0.0086 (at node 17)
	maximum = 0.0112 (at node 10)
Injected flit rate average = 0.010013
	minimum = 0.00833333 (at node 5)
	maximum = 0.0113 (at node 53)
Accepted flit rate average= 0.0100135
	minimum = 0.0086 (at node 17)
	maximum = 0.0112 (at node 10)
Injected packet length average = 1
Accepted packet length average = 1
Total in-flight flits = 12 (12 measured)
latency change    = 0.00230854
throughput change = 0.00447311
Draining all recorded packets ...
Received nack credit for flit 38371
Requeued flit 38371
Draining remaining packets ...
Time taken is 60114 cycles
====== Overall Traffic Statistics ======
====== Traffic class 0 ======
Packet latency average = 21.3085 (1 samples)
	minimum = 5 (1 samples)
	maximum = 291 (1 samples)
Network latency average = 21.3085 (1 samples)
	minimum = 5 (1 samples)
	maximum = 291 (1 samples)
Flit latency average = 21.3167 (1 samples)
	minimum = 5 (1 samples)
	maximum = 291 (1 samples)
Fragmentation average = 0 (1 samples)
	minimum = 0 (1 samples)
	maximum = 0 (1 samples)
Injected packet rate average = 0.010013 (1 samples)
	minimum = 0.00833333 (1 samples)
	maximum = 0.0113 (1 samples)
Accepted packet rate average = 0.0100135 (1 samples)
	minimum = 0.0086 (1 samples)
	maximum = 0.0112 (1 samples)
Injected flit rate average = 0.010013 (1 samples)
	minimum = 0.00833333 (1 samples)
	maximum = 0.0113 (1 samples)
Accepted flit rate average = 0.0100135 (1 samples)
	minimum = 0.0086 (1 samples)
	maximum = 0.0112 (1 samples)
Injected packet size average = 1 (1 samples)
Accepted packet size average = 1 (1 samples)
Hops average = 6.26668 (1 samples)
Total run time 9.51599
