BEGIN Configuration File: examples/ecc_mesh88_config_1_0.950_link_3
// $Id$

// Copyright (c) 2007-2015, Trustees of The Leland Stanford Junior University
// All rights reserved.
//
// Redistribution and use in source and binary forms, with or without
// modification, are permitted provided that the following conditions are met:
//
// Redistributions of source code must retain the above copyright notice, this
// list of conditions and the following disclaimer.
// Redistributions in binary form must reproduce the above copyright notice,
// this list of conditions and the following disclaimer in the documentation
// and/or other materials provided with the distribution.
//
// THIS SOFTWARE IS PROVIDED BY THE COPYRIGHT HOLDERS AND CONTRIBUTORS "AS IS"
// AND ANY EXPRESS OR IMPLIED WARRANTIES, INCLUDING, BUT NOT LIMITED TO, THE
// IMPLIED WARRANTIES OF MERCHANTABILITY AND FITNESS FOR A PARTICULAR PURPOSE
// ARE DISCLAIMED. IN NO EVENT SHALL THE COPYRIGHT OWNER OR CONTRIBUTORS BE
// LIABLE FOR ANY DIRECT, INDIRECT, INCIDENTAL, SPECIAL, EXEMPLARY, OR
// CONSEQUENTIAL DAMAGES (INCLUDING, BUT NOT LIMITED TO, PROCUREMENT OF
// SUBSTITUTE GOODS OR SERVICES; LOSS OF USE, DATA, OR PROFITS; OR BUSINESS
// INTERRUPTION) HOWEVER CAUSED AND ON ANY THEORY OF LIABILITY, WHETHER IN
// CONTRACT, STRICT LIABILITY, OR TORT (INCLUDING NEGLIGENCE OR OTHERWISE)
// ARISING IN ANY WAY OUT OF THE USE OF THIS SOFTWARE, EVEN IF ADVISED OF THE
// POSSIBILITY OF SUCH DAMAGE.

// Dragonfly
//




vc_buf_size = 256;


wait_for_tail_credit = 0;

//
// Router architecture
//
vc_allocator = separable_input_first; 
sw_allocator = separable_input_first;
alloc_iters  = 1;

credit_delay   = 2;
routing_delay  = 0;
vc_alloc_delay = 1;
sw_alloc_delay = 1;
st_final_delay = 1;

input_speedup     = 1;
output_speedup    = 1;
internal_speedup  = 2.0;


warmup_periods = 3;
sim_count          = 1;

sample_period  = 10000;  


routing_function = dor;
num_vcs     = 2;

priority = none;
traffic       = uniform; 

injection_rate = 0.95;
packet_size = 1;
injection_rate_uses_flits = 1;

topology = mesh;

k  = 8;
n  = 2;

fer = 3;
ecc = link;

watch_out=-;
//watch_file = watch.txt;

ecc = link;

stats_out = examples/ecc_mesh88_config_1_0.950_link_3.m;

END Configuration File: examples/ecc_mesh88_config_1_0.950_link_3
1
3
7
Received nack credit for flit 747
Requeued flit 747
Received nack credit for flit 631
Requeued flit 631
Received nack credit for flit 45
Requeued flit 45
3
2
Received nack credit for flit 784
Requeued flit 784
6
Received nack credit for flit 1345
Requeued flit 1345
2
Received nack credit for flit 373
Requeued flit 373
2
Received nack credit for flit 1316
Requeued flit 1316
Received nack credit for flit 1734
Requeued flit 1734
1
4
Received nack credit for flit 1855
Requeued flit 1855
1
2
1
Received nack credit for flit 717
Requeued flit 717
4
Received nack credit for flit 2919
Requeued flit 2919
Received nack credit for flit 3105
Requeued flit 3105
Received nack credit for flit 3220
Requeued flit 3220
Received nack credit for flit 946
Requeued flit 946
1
Received nack credit for flit 2427
Requeued flit 2427
1
Received nack credit for flit 4235
Requeued flit 4235
3
Received nack credit for flit 1517
Requeued flit 1517
3
Received nack credit for flit 3099
Requeued flit 3099
5
Received nack credit for flit 1494
Requeued flit 1494
1
3
Received nack credit for flit 4041
Requeued flit 4041
Received nack credit for flit 2978
Requeued flit 2978
1
7
Received nack credit for flit 4398
Requeued flit 4398
2
Received nack credit for flit 1954
Requeued flit 1954
1
Received nack credit for flit 6528
Requeued flit 6528
Received nack credit for flit 5786
Requeued flit 5786
1
Received nack credit for flit 5252
Requeued flit 5252
2
3
1
4
Received nack credit for flit 4287
Requeued flit 4287
Received nack credit for flit 6982
Requeued flit 6982
Received nack credit for flit 3150
Requeued flit 3150
Received nack credit for flit 8293
Requeued flit 8293
1
Received nack credit for flit 9446
Requeued flit 9446
1
3
1
Received nack credit for flit 7520
Requeued flit 7520
Received nack credit for flit 4475
Requeued flit 4475
Received nack credit for flit 10183
Requeued flit 10183
1
1
Received nack credit for flit 9540
Requeued flit 9540
Received nack credit for flit 7674
Requeued flit 7674
1
Received nack credit for flit 10126
Requeued flit 10126
1
1
Received nack credit for flit 11974
Requeued flit 11974
1
Received nack credit for flit 10766
Requeued flit 10766
Received nack credit for flit 12389
Requeued flit 12389
2
1
Received nack credit for flit 11325
Requeued flit 11325
5
Received nack credit for flit 9718
Requeued flit 9718
1
Received nack credit for flit 6220
Requeued flit 6220
Received nack credit for flit 9830
Requeued flit 9830
8
Received nack credit for flit 4033
Requeued flit 4033
2
4
3
Received nack credit for flit 9411
Requeued flit 9411
1
6
1
Received nack credit for flit 14686
Requeued flit 14686
Received nack credit for flit 11954
Requeued flit 11954
Received nack credit for flit 10806
Requeued flit 10806
Received nack credit for flit 15413
Requeued flit 15413
Received nack credit for flit 9147
Requeued flit 9147
1
Received nack credit for flit 12314
Requeued flit 12314
5
1
3
2
Received nack credit for flit 10374
Requeued flit 10374
Received nack credit for flit 15056
Requeued flit 15056
Received nack credit for flit 11409
Requeued flit 11409
Received nack credit for flit 8292
Requeued flit 8292
1
Received nack credit for flit 11573
Requeued flit 11573
1
1
2
Received nack credit for flit 18031
Requeued flit 18031
3
Received nack credit for flit 16078
Requeued flit 16078
Received nack credit for flit 12851
Requeued flit 12851
Received nack credit for flit 18056
Requeued flit 18056
6
6
Received nack credit for flit 10497
Requeued flit 10497
Received nack credit for flit 8081
Requeued flit 8081
1
1
Received nack credit for flit 19433
Requeued flit 19433
1
Received nack credit for flit 13832
Requeued flit 13832
1
Received nack credit for flit 15436
Requeued flit 15436
Received nack credit for flit 14309
Requeued flit 14309
1
1
Received nack credit for flit 20315
Requeued flit 20315
Received nack credit for flit 14772
Requeued flit 14772
8
2
4
Received nack credit for flit 7136
Requeued flit 7136
Received nack credit for flit 15393
Requeued flit 15393
4
1
2
Received nack credit for flit 9825
Requeued flit 9825
Received nack credit for flit 7836
Requeued flit 7836
Received nack credit for flit 21389
Requeued flit 21389
Received nack credit for flit 21352
Requeued flit 21352
1
5
Received nack credit for flit 17072
Requeued flit 17072
1
Received nack credit for flit 7350
Requeued flit 7350
1
Received nack credit for flit 21011
Requeued flit 21011
Received nack credit for flit 21324
Requeued flit 21324
1
Received nack credit for flit 23589
Requeued flit 23589
1
2
Received nack credit for flit 23922
Requeued flit 23922
6
Received nack credit for flit 12003
Requeued flit 12003
5
Received nack credit for flit 16259
Requeued flit 16259
Received nack credit for flit 11198
Requeued flit 11198
6
1
6
Received nack credit for flit 16480
Requeued flit 16480
Received nack credit for flit 24820
Requeued flit 24820
Received nack credit for flit 8208
Requeued flit 8208
3
4
1
1
Received nack credit for flit 23947
Requeued flit 23947
3
1
Received nack credit for flit 20233
Requeued flit 20233
Received nack credit for flit 23235
Requeued flit 23235
Received nack credit for flit 17748
Requeued flit 17748
Received nack credit for flit 21967
Requeued flit 21967
2
Received nack credit for flit 25790
Requeued flit 25790
Received nack credit for flit 17160
Requeued flit 17160
3
3
Received nack credit for flit 22630
Requeued flit 22630
1
1
Received nack credit for flit 22691
Requeued flit 22691
Received nack credit for flit 18916
Requeued flit 18916
1
Received nack credit for flit 26570
Requeued flit 26570
Received nack credit for flit 23957
Requeued flit 23957
7
Received nack credit for flit 11249
Requeued flit 11249
1
1
Received nack credit for flit 28333
Requeued flit 28333
3
Received nack credit for flit 28570
Requeued flit 28570
1
1
Received nack credit for flit 25819
Requeued flit 25819
Received nack credit for flit 19279
Requeued flit 19279
3
3
Received nack credit for flit 28682
Requeued flit 28682
1
2
Received nack credit for flit 28082
Requeued flit 28082
Received nack credit for flit 29442
Requeued flit 29442
Received nack credit for flit 14488
Requeued flit 14488
2
Received nack credit for flit 20485
Requeued flit 20485
2
2
Received nack credit for flit 16910
Requeued flit 16910
Received nack credit for flit 15555
Requeued flit 15555
Received nack credit for flit 15190
Requeued flit 15190
1
Received nack credit for flit 21672
Requeued flit 21672
5
5
Received nack credit for flit 25351
Requeued flit 25351
Received nack credit for flit 10654
Requeued flit 10654
7
Received nack credit for flit 9077
Requeued flit 9077
2
1
Received nack credit for flit 30718
Requeued flit 30718
Received nack credit for flit 26019
Requeued flit 26019
1
1
Received nack credit for flit 28271
Requeued flit 28271
2
4
Received nack credit for flit 23798
Requeued flit 23798
1
Received nack credit for flit 24338
Requeued flit 24338
1
3
Received nack credit for flit 24053
Requeued flit 24053
2
Received nack credit for flit 34245
Requeued flit 34245
4
Received nack credit for flit 24115
Requeued flit 24115
Received nack credit for flit 28379
Requeued flit 28379
Received nack credit for flit 23024
Requeued flit 23024
1
Received nack credit for flit 16048
Requeued flit 16048
1
Received nack credit for flit 27197
Requeued flit 27197
3
Received nack credit for flit 24194
Requeued flit 24194
Received nack credit for flit 17231
Requeued flit 17231
1
Received nack credit for flit 24191
Requeued flit 24191
7
Received nack credit for flit 21917
Requeued flit 21917
1
Received nack credit for flit 36666
Requeued flit 36666
1
2
Received nack credit for flit 33486
Requeued flit 33486
Received nack credit for flit 25605
Requeued flit 25605
1
4
4
1
Received nack credit for flit 37829
Requeued flit 37829
Received nack credit for flit 13774
Requeued flit 13774
Received nack credit for flit 11752
Requeued flit 11752
Received nack credit for flit 25457
Requeued flit 25457
1
Received nack credit for flit 38605
Requeued flit 38605
2
1
Received nack credit for flit 19359
Requeued flit 19359
2
Received nack credit for flit 39268
Requeued flit 39268
Received nack credit for flit 36270
Requeued flit 36270
3
Received nack credit for flit 34090
Requeued flit 34090
1
Received nack credit for flit 28633
Requeued flit 28633
1
1
Received nack credit for flit 40915
Requeued flit 40915
Received nack credit for flit 40912
Requeued flit 40912
1
6
Received nack credit for flit 29551
Requeued flit 29551
Received nack credit for flit 27613
Requeued flit 27613
2
5
1
1
Received nack credit for flit 21575
Requeued flit 21575
2
Received nack credit for flit 13285
Requeued flit 13285
Received nack credit for flit 42187
Requeued flit 42187
6
Received nack credit for flit 42280
Requeued flit 42280
Received nack credit for flit 30071
Requeued flit 30071
2
1
1
Received nack credit for flit 27930
Requeued flit 27930
Received nack credit for flit 23939
Requeued flit 23939
2
Received nack credit for flit 42708
Requeued flit 42708
Received nack credit for flit 42814
Requeued flit 42814
5
Received nack credit for flit 29557
Requeued flit 29557
1
Received nack credit for flit 24628
Requeued flit 24628
Received nack credit for flit 30493
Requeued flit 30493
2
1
Received nack credit for flit 29831
Requeued flit 29831
1
Received nack credit for flit 43887
Requeued flit 43887
4
1
Received nack credit for flit 31982
Requeued flit 31982
Received nack credit for flit 15908
Requeued flit 15908
Received nack credit for flit 44786
Requeued flit 44786
3
1
Received nack credit for flit 16583
Requeued flit 16583
3
Received nack credit for flit 30248
Requeued flit 30248
1
Received nack credit for flit 21100
Requeued flit 21100
Received nack credit for flit 32556
Requeued flit 32556
3
1
Received nack credit for flit 40897
Requeued flit 40897
2
Received nack credit for flit 32369
Requeued flit 32369
3
Received nack credit for flit 42315
Requeued flit 42315
2
Received nack credit for flit 23209
Requeued flit 23209
2
2
Received nack credit for flit 43601
Requeued flit 43601
6
Received nack credit for flit 45720
Requeued flit 45720
Received nack credit for flit 37685
Requeued flit 37685
Received nack credit for flit 26999
Requeued flit 26999
1
1
1
Received nack credit for flit 36381
Requeued flit 36381
Received nack credit for flit 38092
Requeued flit 38092
1
Received nack credit for flit 42118
Requeued flit 42118
Received nack credit for flit 48173
Requeued flit 48173
1
Received nack credit for flit 49091
Requeued flit 49091
1
Received nack credit for flit 33558
Requeued flit 33558
1
2
Received nack credit for flit 34830
Requeued flit 34830
Received nack credit for flit 27115
Requeued flit 27115
2
2
6
Received nack credit for flit 34191
Requeued flit 34191
1
Received nack credit for flit 28165
Requeued flit 28165
1
Received nack credit for flit 25028
Requeued flit 25028
Received nack credit for flit 50818
Requeued flit 50818
2
Received nack credit for flit 36086
Requeued flit 36086
5
Received nack credit for flit 36069
Requeued flit 36069
5
Received nack credit for flit 31308
Requeued flit 31308
6
Received nack credit for flit 34860
Requeued flit 34860
Received nack credit for flit 16266
Requeued flit 16266
1
Received nack credit for flit 35694
Requeued flit 35694
1
1
Received nack credit for flit 36833
Requeued flit 36833
Received nack credit for flit 37194
Requeued flit 37194
3
Received nack credit for flit 37160
Requeued flit 37160
6
Received nack credit for flit 36790
Requeued flit 36790
3
4
Received nack credit for flit 54676
Requeued flit 54676
3
Received nack credit for flit 41187
Requeued flit 41187
Received nack credit for flit 27408
Requeued flit 27408
3
2
Received nack credit for flit 38522
Requeued flit 38522
Received nack credit for flit 44748
Requeued flit 44748
1
Received nack credit for flit 57213
Requeued flit 57213
5
Received nack credit for flit 25690
Requeued flit 25690
2
5
Received nack credit for flit 41365
Requeued flit 41365
Received nack credit for flit 38332
Requeued flit 38332
1
4
Received nack credit for flit 59051
Requeued flit 59051
Received nack credit for flit 36334
Requeued flit 36334
4
7
4
Received nack credit for flit 23308
Requeued flit 23308
Received nack credit for flit 20920
Requeued flit 20920
Received nack credit for flit 22719
Requeued flit 22719
3
2
Received nack credit for flit 55120
Requeued flit 55120
Received nack credit for flit 34179
Requeued flit 34179
1
3
Received nack credit for flit 41822
Requeued flit 41822
2
Received nack credit for flit 43715
Requeued flit 43715
6
Received nack credit for flit 56875
Requeued flit 56875
2
4
Received nack credit for flit 42975
Requeued flit 42975
1
1
4
Received nack credit for flit 58819
Requeued flit 58819
Received nack credit for flit 39319
Requeued flit 39319
1
Received nack credit for flit 43610
Requeued flit 43610
5
Received nack credit for flit 48639
Requeued flit 48639
Received nack credit for flit 36185
Requeued flit 36185
Received nack credit for flit 62231
Requeued flit 62231
Received nack credit for flit 41960
Requeued flit 41960
3
3
Received nack credit for flit 44935
Requeued flit 44935
4
1
1
Received nack credit for flit 45175
Requeued flit 45175
1
Received nack credit for flit 44111
Requeued flit 44111
Received nack credit for flit 50050
Requeued flit 50050
Received nack credit for flit 45030
Requeued flit 45030
1
Received nack credit for flit 44941
Requeued flit 44941
Received nack credit for flit 64279
Requeued flit 64279
1
1
Received nack credit for flit 49654
Requeued flit 49654
10
Received nack credit for flit 50369
Requeued flit 50369
10
Received nack credit for flit 13934
Requeued flit 13934
Received nack credit for flit 19502
Requeued flit 19502
3
3
Received nack credit for flit 24545
Requeued flit 24545
Received nack credit for flit 32846
Requeued flit 32846
1
1
Received nack credit for flit 46794
Requeued flit 46794
2
Received nack credit for flit 46616
Requeued flit 46616
Received nack credit for flit 66567
Requeued flit 66567
1
2
4
3
Received nack credit for flit 60640
Requeued flit 60640
1
Received nack credit for flit 39278
Requeued flit 39278
Received nack credit for flit 60393
Requeued flit 60393
1
Received nack credit for flit 47084
Requeued flit 47084
Received nack credit for flit 59358
Requeued flit 59358
Received nack credit for flit 67418
Requeued flit 67418
1
3
Received nack credit for flit 67626
Requeued flit 67626
Received nack credit for flit 47309
Requeued flit 47309
1
Received nack credit for flit 68680
Requeued flit 68680
1
Received nack credit for flit 48301
Requeued flit 48301
6
Received nack credit for flit 46865
Requeued flit 46865
1
1
Received nack credit for flit 68630
Requeued flit 68630
Received nack credit for flit 66320
Requeued flit 66320
4
Received nack credit for flit 49728
Requeued flit 49728
3
3
1
Received nack credit for flit 49574
Requeued flit 49574
Received nack credit for flit 50191
Requeued flit 50191
Received nack credit for flit 66012
Requeued flit 66012
1
Received nack credit for flit 50870
Requeued flit 50870
10
1
3
1
Received nack credit for flit 17176
Requeued flit 17176
Received nack credit for flit 51887
Requeued flit 51887
3
Received nack credit for flit 36873
Requeued flit 36873
Received nack credit for flit 72643
Requeued flit 72643
1
Received nack credit for flit 35664
Requeued flit 35664
1
3
1
Received nack credit for flit 57247
Requeued flit 57247
Received nack credit for flit 52056
Requeued flit 52056
Received nack credit for flit 51457
Requeued flit 51457
Received nack credit for flit 51183
Requeued flit 51183
2
1
Received nack credit for flit 72201
Requeued flit 72201
1
Received nack credit for flit 51785
Requeued flit 51785
4
Received nack credit for flit 74037
Requeued flit 74037
6
Received nack credit for flit 52524
Requeued flit 52524
4
3
Received nack credit for flit 50294
Requeued flit 50294
Received nack credit for flit 72639
Requeued flit 72639
Received nack credit for flit 70089
Requeued flit 70089
1
4
4
Received nack credit for flit 75258
Requeued flit 75258
Received nack credit for flit 55826
Requeued flit 55826
1
Received nack credit for flit 58484
Requeued flit 58484
3
Received nack credit for flit 68857
Requeued flit 68857
Received nack credit for flit 35320
Requeued flit 35320
1
Received nack credit for flit 75859
Requeued flit 75859
5
2
Received nack credit for flit 67586
Requeued flit 67586
2
Received nack credit for flit 51862
Requeued flit 51862
Received nack credit for flit 37804
Requeued flit 37804
4
3
1
Received nack credit for flit 46175
Requeued flit 46175
Received nack credit for flit 37741
Requeued flit 37741
2
Received nack credit for flit 77477
Requeued flit 77477
2
Received nack credit for flit 54250
Requeued flit 54250
1
8
Received nack credit for flit 37129
Requeued flit 37129
3
6
Received nack credit for flit 70817
Requeued flit 70817
1
4
Received nack credit for flit 26039
Requeued flit 26039
Received nack credit for flit 59347
Requeued flit 59347
Received nack credit for flit 40682
Requeued flit 40682
1
Received nack credit for flit 46734
Requeued flit 46734
Received nack credit for flit 54855
Requeued flit 54855
1
Received nack credit for flit 78812
Requeued flit 78812
4
Received nack credit for flit 55140
Requeued flit 55140
1
6
Received nack credit for flit 39569
Requeued flit 39569
3
7
Received nack credit for flit 57035
Requeued flit 57035
Received nack credit for flit 35675
Requeued flit 35675
1
1
Received nack credit for flit 31200
Requeued flit 31200
Received nack credit for flit 24469
Requeued flit 24469
Received nack credit for flit 56254
Requeued flit 56254
Received nack credit for flit 79971
Requeued flit 79971
4
1
12
1
Received nack credit for flit 17344
Requeued flit 17344
Received nack credit for flit 59007
Requeued flit 59007
Received nack credit for flit 80513
Requeued flit 80513
1
2
Received nack credit for flit 56801
Requeued flit 56801
Received nack credit for flit 45653
Requeued flit 45653
2
Received nack credit for flit 80909
Requeued flit 80909
5
Received nack credit for flit 44933
Requeued flit 44933
4
Received nack credit for flit 42307
Requeued flit 42307
4
Received nack credit for flit 72519
Requeued flit 72519
Received nack credit for flit 36450
Requeued flit 36450
1
1
1
Received nack credit for flit 64849
Requeued flit 64849
Received nack credit for flit 57995
Requeued flit 57995
Received nack credit for flit 57928
Requeued flit 57928
6
Received nack credit for flit 43354
Requeued flit 43354
3
Received nack credit for flit 75452
Requeued flit 75452
1
Received nack credit for flit 84302
Requeued flit 84302
7
1
Received nack credit for flit 36907
Requeued flit 36907
Received nack credit for flit 76922
Requeued flit 76922
2
Received nack credit for flit 61197
Requeued flit 61197
5
5
2
Received nack credit for flit 76107
Requeued flit 76107
Received nack credit for flit 33815
Requeued flit 33815
Received nack credit for flit 47134
Requeued flit 47134
4
7
Received nack credit for flit 29855
Requeued flit 29855
Received nack credit for flit 26903
Requeued flit 26903
5
1
Received nack credit for flit 59036
Requeued flit 59036
1
5
1
1
Received nack credit for flit 68603
Requeued flit 68603
Received nack credit for flit 77183
Requeued flit 77183
4
Received nack credit for flit 87922
Requeued flit 87922
Received nack credit for flit 56612
Requeued flit 56612
Received nack credit for flit 87859
Requeued flit 87859
6
Received nack credit for flit 29809
Requeued flit 29809
7
1
6
Received nack credit for flit 31266
Requeued flit 31266
Received nack credit for flit 70757
Requeued flit 70757
1
2
Received nack credit for flit 67942
Requeued flit 67942
Received nack credit for flit 62634
Requeued flit 62634
Received nack credit for flit 63979
Requeued flit 63979
9
1
Received nack credit for flit 24020
Requeued flit 24020
6
Received nack credit for flit 38022
Requeued flit 38022
Received nack credit for flit 90604
Requeued flit 90604
1
1
Received nack credit for flit 91216
Requeued flit 91216
Received nack credit for flit 91555
Requeued flit 91555
1
3
Received nack credit for flit 91793
Requeued flit 91793
Received nack credit for flit 71772
Requeued flit 71772
2
1
Received nack credit for flit 73228
Requeued flit 73228
Received nack credit for flit 72761
Requeued flit 72761
9
1
1
Received nack credit for flit 31122
Requeued flit 31122
Received nack credit for flit 92943
Requeued flit 92943
Received nack credit for flit 64522
Requeued flit 64522
2
1
1
4
Received nack credit for flit 71771
Requeued flit 71771
Received nack credit for flit 85260
Requeued flit 85260
Received nack credit for flit 63667
Requeued flit 63667
Received nack credit for flit 36046
Requeued flit 36046
1
Received nack credit for flit 64684
Requeued flit 64684
1
Received nack credit for flit 64719
Requeued flit 64719
1
1
Received nack credit for flit 94504
Requeued flit 94504
Received nack credit for flit 66274
Requeued flit 66274
1
Received nack credit for flit 95324
Requeued flit 95324
3
Received nack credit for flit 76377
Requeued flit 76377
1
1
Received nack credit for flit 66385
Requeued flit 66385
1
Received nack credit for flit 96671
Requeued flit 96671
3
Received nack credit for flit 88970
Requeued flit 88970
1
2
Received nack credit for flit 45452
Requeued flit 45452
5
Received nack credit for flit 68339
Requeued flit 68339
Received nack credit for flit 47652
Requeued flit 47652
Received nack credit for flit 59763
Requeued flit 59763
1
1
2
2
Received nack credit for flit 68560
Requeued flit 68560
Received nack credit for flit 97917
Requeued flit 97917
1
2
Received nack credit for flit 67482
Requeued flit 67482
Received nack credit for flit 68332
Requeued flit 68332
Received nack credit for flit 92871
Requeued flit 92871
Received nack credit for flit 69698
Requeued flit 69698
12
2
1
Received nack credit for flit 21890
Requeued flit 21890
1
Received nack credit for flit 84122
Requeued flit 84122
Received nack credit for flit 69954
Requeued flit 69954
2
Received nack credit for flit 90247
Requeued flit 90247
Received nack credit for flit 54145
Requeued flit 54145
1
3
Received nack credit for flit 49013
Requeued flit 49013
Received nack credit for flit 90671
Requeued flit 90671
1
2
1
4
Received nack credit for flit 70637
Requeued flit 70637
5
Received nack credit for flit 100247
Requeued flit 100247
Received nack credit for flit 69659
Requeued flit 69659
Received nack credit for flit 93150
Requeued flit 93150
Received nack credit for flit 64963
Requeued flit 64963
2
4
Received nack credit for flit 48459
Requeued flit 48459
8
5
Received nack credit for flit 69036
Requeued flit 69036
1
Received nack credit for flit 48709
Requeued flit 48709
Received nack credit for flit 69174
Requeued flit 69174
Received nack credit for flit 96902
Requeued flit 96902
5
Received nack credit for flit 65764
Requeued flit 65764
1
1
2
Received nack credit for flit 70670
Requeued flit 70670
2
Received nack credit for flit 81805
Requeued flit 81805
Received nack credit for flit 57372
Requeued flit 57372
3
1
Received nack credit for flit 71524
Requeued flit 71524
Received nack credit for flit 49225
Requeued flit 49225
Received nack credit for flit 73170
Requeued flit 73170
3
Received nack credit for flit 88985
Requeued flit 88985
1
1
4
Received nack credit for flit 74726
Requeued flit 74726
Received nack credit for flit 96902
Requeued flit 96902
Received nack credit for flit 93519
Requeued flit 93519
5
4
Received nack credit for flit 74531
Requeued flit 74531
Received nack credit for flit 94187
Requeued flit 94187
2
1
2
1
Received nack credit for flit 79987
Requeued flit 79987
Received nack credit for flit 97545
Requeued flit 97545
Received nack credit for flit 74966
Requeued flit 74966
Received nack credit for flit 84402
Requeued flit 84402
1
10
1
8
1
Received nack credit for flit 76660
Requeued flit 76660
Received nack credit for flit 75583
Requeued flit 75583
Received nack credit for flit 44199
Requeued flit 44199
1
Received nack credit for flit 64411
Requeued flit 64411
Received nack credit for flit 108679
Requeued flit 108679
12
1
6
1
Received nack credit for flit 83845
Requeued flit 83845
Received nack credit for flit 77735
Requeued flit 77735
Received nack credit for flit 39620
Requeued flit 39620
Received nack credit for flit 25193
Requeued flit 25193
1
Received nack credit for flit 109122
Requeued flit 109122
Received nack credit for flit 75112
Requeued flit 75112
3
1
Received nack credit for flit 100547
Requeued flit 100547
Received nack credit for flit 110338
Requeued flit 110338
3
1
4
Received nack credit for flit 54303
Requeued flit 54303
Received nack credit for flit 54126
Requeued flit 54126
1
Received nack credit for flit 110838
Requeued flit 110838
Received nack credit for flit 76614
Requeued flit 76614
1
4
Received nack credit for flit 88537
Requeued flit 88537
Received nack credit for flit 63457
Requeued flit 63457
6
1
2
Received nack credit for flit 55209
Requeued flit 55209
Received nack credit for flit 88077
Requeued flit 88077
Received nack credit for flit 88165
Requeued flit 88165
5
3
1
Received nack credit for flit 43820
Requeued flit 43820
7
4
Received nack credit for flit 54321
Requeued flit 54321
Received nack credit for flit 64900
Requeued flit 64900
Received nack credit for flit 38959
Requeued flit 38959
1
Received nack credit for flit 112984
Requeued flit 112984
5
1
Received nack credit for flit 57928
Requeued flit 57928
Received nack credit for flit 39517
Requeued flit 39517
Received nack credit for flit 113638
Requeued flit 113638
4
6
7
Received nack credit for flit 40709
Requeued flit 40709
Received nack credit for flit 34213
Requeued flit 34213
Received nack credit for flit 63874
Requeued flit 63874
2
2
Received nack credit for flit 63443
Requeued flit 63443
Received nack credit for flit 106626
Requeued flit 106626
2
Received nack credit for flit 55815
Requeued flit 55815
1
4
1
Received nack credit for flit 116270
Requeued flit 116270
Received nack credit for flit 91553
Requeued flit 91553
Received nack credit for flit 82510
Requeued flit 82510
1
8
Received nack credit for flit 116917
Requeued flit 116917
Received nack credit for flit 28844
Requeued flit 28844
1
4
1
1
Received nack credit for flit 92818
Requeued flit 92818
Received nack credit for flit 117593
Requeued flit 117593
1
Received nack credit for flit 117533
Requeued flit 117533
Received nack credit for flit 106858
Requeued flit 106858
1
4
7
Received nack credit for flit 58312
Requeued flit 58312
Received nack credit for flit 40425
Requeued flit 40425
Received nack credit for flit 118485
Requeued flit 118485
2
Received nack credit for flit 84940
Requeued flit 84940
1
1
Received nack credit for flit 105579
Requeued flit 105579
Received nack credit for flit 108200
Requeued flit 108200
2
5
Received nack credit for flit 83245
Requeued flit 83245
Received nack credit for flit 45406
Requeued flit 45406
3
4
2
5
1
1
Received nack credit for flit 108030
Requeued flit 108030
Received nack credit for flit 98019
Requeued flit 98019
Received nack credit for flit 97364
Requeued flit 97364
Received nack credit for flit 94305
Requeued flit 94305
4
Received nack credit for flit 107780
Requeued flit 107780
Received nack credit for flit 59827
Requeued flit 59827
Received nack credit for flit 105231
Requeued flit 105231
1
1
1
Received nack credit for flit 122037
Requeued flit 122037
2
4
Received nack credit for flit 121916
Requeued flit 121916
Received nack credit for flit 86174
Requeued flit 86174
Received nack credit for flit 96122
Requeued flit 96122
4
Received nack credit for flit 42686
Requeued flit 42686
1
Received nack credit for flit 111236
Requeued flit 111236
1
2
Received nack credit for flit 110584
Requeued flit 110584
Received nack credit for flit 46616
Requeued flit 46616
1
Received nack credit for flit 84815
Requeued flit 84815
5
6
10
Received nack credit for flit 92431
Requeued flit 92431
Received nack credit for flit 87979
Requeued flit 87979
Received nack credit for flit 28145
Requeued flit 28145
5
4
7
Received nack credit for flit 82361
Requeued flit 82361
4
3
4
6
Received nack credit for flit 76184
Requeued flit 76184
Received nack credit for flit 90052
Requeued flit 90052
Received nack credit for flit 46928
Requeued flit 46928
Received nack credit for flit 87043
Requeued flit 87043
1
Received nack credit for flit 58016
Requeued flit 58016
4
Received nack credit for flit 88835
Requeued flit 88835
Received nack credit for flit 58443
Requeued flit 58443
2
3
Received nack credit for flit 113605
Requeued flit 113605
6
Received nack credit for flit 89107
Requeued flit 89107
2
6
1
Received nack credit for flit 52773
Requeued flit 52773
Received nack credit for flit 82327
Requeued flit 82327
Received nack credit for flit 75556
Requeued flit 75556
Received nack credit for flit 127067
Requeued flit 127067
5
4
Received nack credit for flit 45748
Requeued flit 45748
5
1
Received nack credit for flit 93269
Requeued flit 93269
3
Received nack credit for flit 73652
Requeued flit 73652
Received nack credit for flit 100393
Requeued flit 100393
1
Received nack credit for flit 89820
Requeued flit 89820
Received nack credit for flit 128182
Requeued flit 128182
2
5
2
Received nack credit for flit 92555
Requeued flit 92555
Received nack credit for flit 52874
Requeued flit 52874
7
Received nack credit for flit 61306
Requeued flit 61306
Received nack credit for flit 44458
Requeued flit 44458
3
1
Received nack credit for flit 61412
Requeued flit 61412
Received nack credit for flit 129924
Requeued flit 129924
1
1
1
Received nack credit for flit 102456
Requeued flit 102456
Received nack credit for flit 93217
Requeued flit 93217
Received nack credit for flit 91241
Requeued flit 91241
5
3
Received nack credit for flit 93144
Requeued flit 93144
Received nack credit for flit 61060
Requeued flit 61060
3
Received nack credit for flit 118419
Requeued flit 118419
1
3
1
1
Received nack credit for flit 98758
Requeued flit 98758
Received nack credit for flit 122129
Requeued flit 122129
Received nack credit for flit 106060
Requeued flit 106060
4
1
Received nack credit for flit 131574
Requeued flit 131574
1
1
Received nack credit for flit 46869
Requeued flit 46869
Received nack credit for flit 97698
Requeued flit 97698
Received nack credit for flit 94733
Requeued flit 94733
3
Received nack credit for flit 118977
Requeued flit 118977
Received nack credit for flit 65156
Requeued flit 65156
2
Received nack credit for flit 96807
Requeued flit 96807
3
Received nack credit for flit 65489
Requeued flit 65489
10
4
Received nack credit for flit 45827
Requeued flit 45827
Received nack credit for flit 52659
Requeued flit 52659
1
2
Received nack credit for flit 107491
Requeued flit 107491
6
Received nack credit for flit 122418
Requeued flit 122418
Received nack credit for flit 94125
Requeued flit 94125
1
2
Received nack credit for flit 108511
Requeued flit 108511
Received nack credit for flit 97344
Requeued flit 97344
3
Received nack credit for flit 96039
Requeued flit 96039
2
Received nack credit for flit 76139
Requeued flit 76139
2
Received nack credit for flit 64864
Requeued flit 64864
3
2
1
Received nack credit for flit 70867
Requeued flit 70867
Received nack credit for flit 124437
Requeued flit 124437
Received nack credit for flit 124136
Requeued flit 124136
1
4
Received nack credit for flit 106197
Requeued flit 106197
2
6
1
Received nack credit for flit 88624
Requeued flit 88624
Received nack credit for flit 49383
Requeued flit 49383
Received nack credit for flit 112776
Requeued flit 112776
Received nack credit for flit 100073
Requeued flit 100073
5
Received nack credit for flit 112203
Requeued flit 112203
2
2
2
Received nack credit for flit 89851
Requeued flit 89851
Received nack credit for flit 121447
Requeued flit 121447
1
Received nack credit for flit 94238
Requeued flit 94238
6
Received nack credit for flit 111722
Requeued flit 111722
Received nack credit for flit 54356
Requeued flit 54356
2
Received nack credit for flit 95533
Requeued flit 95533
4
Received nack credit for flit 110166
Requeued flit 110166
3
Received nack credit for flit 126789
Requeued flit 126789
2
6
Received nack credit for flit 103045
Requeued flit 103045
3
Received nack credit for flit 61472
Requeued flit 61472
1
Received nack credit for flit 102243
Requeued flit 102243
3
Received nack credit for flit 106845
Requeued flit 106845
1
Received nack credit for flit 78312
Requeued flit 78312
Received nack credit for flit 114228
Requeued flit 114228
2
5
Received nack credit for flit 104583
Requeued flit 104583
Received nack credit for flit 85689
Requeued flit 85689
1
Received nack credit for flit 108708
Requeued flit 108708
1
1
2
Received nack credit for flit 116437
Requeued flit 116437
2
Received nack credit for flit 110226
Requeued flit 110226
7
1
Received nack credit for flit 100432
Requeued flit 100432
Received nack credit for flit 51439
Requeued flit 51439
Received nack credit for flit 102378
Requeued flit 102378
Received nack credit for flit 131577
Requeued flit 131577
7
6
Received nack credit for flit 74971
Requeued flit 74971
1
Received nack credit for flit 89252
Requeued flit 89252
Received nack credit for flit 132968
Requeued flit 132968
6
Received nack credit for flit 51986
Requeued flit 51986
5
1
Received nack credit for flit 53350
Requeued flit 53350
3
Received nack credit for flit 136972
Requeued flit 136972
Received nack credit for flit 74900
Requeued flit 74900
2
1
Received nack credit for flit 88558
Requeued flit 88558
5
Received nack credit for flit 135257
Requeued flit 135257
7
1
Received nack credit for flit 50612
Requeued flit 50612
Received nack credit for flit 67799
Requeued flit 67799
Received nack credit for flit 134716
Requeued flit 134716
6
2
5
Received nack credit for flit 107920
Requeued flit 107920
Received nack credit for flit 63357
Requeued flit 63357
Received nack credit for flit 107733
Requeued flit 107733
4
1
Received nack credit for flit 98521
Requeued flit 98521
Received nack credit for flit 112210
Requeued flit 112210
5
3
2
2
Received nack credit for flit 120551
Requeued flit 120551
Received nack credit for flit 134565
Requeued flit 134565
Received nack credit for flit 87159
Requeued flit 87159
7
Received nack credit for flit 85829
Requeued flit 85829
1
Received nack credit for flit 123531
Requeued flit 123531
1
1
Received nack credit for flit 54493
Requeued flit 54493
Received nack credit for flit 102218
Requeued flit 102218
4
Received nack credit for flit 122750
Requeued flit 122750
7
Received nack credit for flit 121028
Requeued flit 121028
Received nack credit for flit 48063
Requeued flit 48063
6
4
Received nack credit for flit 119605
Requeued flit 119605
Received nack credit for flit 58512
Requeued flit 58512
1
Received nack credit for flit 149703
Requeued flit 149703
1
4
Received nack credit for flit 126306
Requeued flit 126306
Received nack credit for flit 77877
Requeued flit 77877
2
Received nack credit for flit 111967
Requeued flit 111967
1
Received nack credit for flit 140521
Requeued flit 140521
1
Received nack credit for flit 119469
Requeued flit 119469
1
Received nack credit for flit 138909
Requeued flit 138909
2
2
1
Received nack credit for flit 137952
Requeued flit 137952
Received nack credit for flit 140688
Requeued flit 140688
3
7
2
2
Received nack credit for flit 56580
Requeued flit 56580
Received nack credit for flit 55402
Requeued flit 55402
Received nack credit for flit 139920
Requeued flit 139920
1
Received nack credit for flit 74742
Requeued flit 74742
Received nack credit for flit 120920
Requeued flit 120920
1
Received nack credit for flit 120023
Requeued flit 120023
Received nack credit for flit 145358
Requeued flit 145358
3
1
Received nack credit for flit 81509
Requeued flit 81509
Received nack credit for flit 104219
Requeued flit 104219
8
1
Received nack credit for flit 78785
Requeued flit 78785
Received nack credit for flit 142875
Requeued flit 142875
2
1
Received nack credit for flit 124647
Requeued flit 124647
5
Received nack credit for flit 130087
Requeued flit 130087
2
Received nack credit for flit 124097
Requeued flit 124097
Received nack credit for flit 77698
Requeued flit 77698
4
1
Received nack credit for flit 59923
Requeued flit 59923
Received nack credit for flit 141869
Requeued flit 141869
2
5
Received nack credit for flit 114477
Requeued flit 114477
Received nack credit for flit 54747
Requeued flit 54747
3
1
Received nack credit for flit 134137
Requeued flit 134137
Received nack credit for flit 134386
Requeued flit 134386
3
Received nack credit for flit 61621
Requeued flit 61621
4
2
1
Received nack credit for flit 80071
Requeued flit 80071
Received nack credit for flit 106987
Requeued flit 106987
Received nack credit for flit 133530
Requeued flit 133530
4
2
1
1
2
Received nack credit for flit 55665
Requeued flit 55665
Received nack credit for flit 140747
Requeued flit 140747
Received nack credit for flit 145371
Requeued flit 145371
Received nack credit for flit 138217
Requeued flit 138217
Received nack credit for flit 77193
Requeued flit 77193
3
6
6
Received nack credit for flit 83763
Requeued flit 83763
Received nack credit for flit 79000
Requeued flit 79000
Received nack credit for flit 102985
Requeued flit 102985
1
1
Received nack credit for flit 138756
Requeued flit 138756
3
Received nack credit for flit 103779
Requeued flit 103779
Received nack credit for flit 78163
Requeued flit 78163
1
Received nack credit for flit 127172
Requeued flit 127172
1
6
Received nack credit for flit 149414
Requeued flit 149414
1
Received nack credit for flit 145280
Requeued flit 145280
Received nack credit for flit 136283
Requeued flit 136283
1
1
Received nack credit for flit 128449
Requeued flit 128449
1
1
1
Received nack credit for flit 128319
Requeued flit 128319
Received nack credit for flit 136553
Requeued flit 136553
Received nack credit for flit 129412
Requeued flit 129412
Received nack credit for flit 160349
Requeued flit 160349
4
2
4
Received nack credit for flit 161085
Requeued flit 161085
Received nack credit for flit 72155
Requeued flit 72155
Received nack credit for flit 86409
Requeued flit 86409
4
6
Received nack credit for flit 123484
Requeued flit 123484
Received nack credit for flit 86429
Requeued flit 86429
5
1
6
Received nack credit for flit 85727
Requeued flit 85727
1
2
Received nack credit for flit 119526
Requeued flit 119526
Received nack credit for flit 140181
Requeued flit 140181
Received nack credit for flit 137909
Requeued flit 137909
Received nack credit for flit 98352
Requeued flit 98352
4
Received nack credit for flit 104327
Requeued flit 104327
2
Received nack credit for flit 83818
Requeued flit 83818
1
5
Received nack credit for flit 139612
Requeued flit 139612
Received nack credit for flit 59729
Requeued flit 59729
3
4
Received nack credit for flit 128843
Requeued flit 128843
6
Received nack credit for flit 101951
Requeued flit 101951
5
Received nack credit for flit 60029
Requeued flit 60029
Received nack credit for flit 98494
Requeued flit 98494
7
4
Received nack credit for flit 54042
Requeued flit 54042
1
Received nack credit for flit 128603
Requeued flit 128603
2
Received nack credit for flit 98145
Requeued flit 98145
Received nack credit for flit 137721
Requeued flit 137721
2
6
Received nack credit for flit 82389
Requeued flit 82389
Received nack credit for flit 140590
Requeued flit 140590
1
3
Received nack credit for flit 139592
Requeued flit 139592
Received nack credit for flit 132900
Requeued flit 132900
1
Received nack credit for flit 109729
Requeued flit 109729
4
Received nack credit for flit 143493
Requeued flit 143493
1
3
10
Received nack credit for flit 135291
Requeued flit 135291
Received nack credit for flit 157829
Requeued flit 157829
1
Received nack credit for flit 51550
Requeued flit 51550
Received nack credit for flit 132555
Requeued flit 132555
2
1
Received nack credit for flit 142327
Requeued flit 142327
4
Received nack credit for flit 139375
Requeued flit 139375
Received nack credit for flit 65276
Requeued flit 65276
1
5
Received nack credit for flit 156320
Requeued flit 156320
4
8
Received nack credit for flit 156852
Requeued flit 156852
Received nack credit for flit 107783
Requeued flit 107783
Received nack credit for flit 119908
Requeued flit 119908
4
1
Received nack credit for flit 157257
Requeued flit 157257
5
Received nack credit for flit 61903
Requeued flit 61903
Received nack credit for flit 110145
Requeued flit 110145
1
3
Received nack credit for flit 158731
Requeued flit 158731
Received nack credit for flit 68154
Requeued flit 68154
3
2
1
4
Received nack credit for flit 117315
Requeued flit 117315
Received nack credit for flit 135936
Requeued flit 135936
Received nack credit for flit 66141
Requeued flit 66141
Received nack credit for flit 136682
Requeued flit 136682
1
2
Received nack credit for flit 143364
Requeued flit 143364
4
Received nack credit for flit 143733
Requeued flit 143733
1
Received nack credit for flit 62325
Requeued flit 62325
2
Received nack credit for flit 143834
Requeued flit 143834
1
Received nack credit for flit 146464
Requeued flit 146464
Received nack credit for flit 145326
Requeued flit 145326
7
2
5
Received nack credit for flit 119737
Requeued flit 119737
Received nack credit for flit 87673
Requeued flit 87673
3
Received nack credit for flit 135216
Requeued flit 135216
Received nack credit for flit 125605
Requeued flit 125605
1
1
Received nack credit for flit 160163
Requeued flit 160163
Received nack credit for flit 143469
Requeued flit 143469
2
5
Received nack credit for flit 110094
Requeued flit 110094
2
Received nack credit for flit 127071
Requeued flit 127071
4
Received nack credit for flit 162598
Requeued flit 162598
5
1
5
Received nack credit for flit 103229
Requeued flit 103229
Received nack credit for flit 83510
Requeued flit 83510
Received nack credit for flit 161933
Requeued flit 161933
6
Received nack credit for flit 123868
Requeued flit 123868
Received nack credit for flit 59583
Requeued flit 59583
4
Received nack credit for flit 138642
Requeued flit 138642
4
1
7
Received nack credit for flit 135612
Requeued flit 135612
Received nack credit for flit 139574
Requeued flit 139574
Received nack credit for flit 142425
Requeued flit 142425
9
1
Received nack credit for flit 75500
Requeued flit 75500
Received nack credit for flit 173773
Requeued flit 173773
5
1
4
4
Received nack credit for flit 124993
Requeued flit 124993
4
Received nack credit for flit 153022
Requeued flit 153022
Received nack credit for flit 74567
Requeued flit 74567
Received nack credit for flit 96351
Requeued flit 96351
3
Received nack credit for flit 143689
Requeued flit 143689
Received nack credit for flit 146340
Requeued flit 146340
6
5
5
Received nack credit for flit 66806
Requeued flit 66806
Received nack credit for flit 97076
Requeued flit 97076
Received nack credit for flit 136661
Requeued flit 136661
1
Received nack credit for flit 143032
Requeued flit 143032
9
7
Received nack credit for flit 55409
Requeued flit 55409
Received nack credit for flit 135204
Requeued flit 135204
6
7
Received nack credit for flit 159554
Requeued flit 159554
Received nack credit for flit 90497
Requeued flit 90497
4
Received nack credit for flit 81311
Requeued flit 81311
2
Received nack credit for flit 143705
Requeued flit 143705
1
7
3
Received nack credit for flit 143838
Requeued flit 143838
Received nack credit for flit 66596
Requeued flit 66596
Received nack credit for flit 156384
Requeued flit 156384
5
Received nack credit for flit 132534
Requeued flit 132534
1
Received nack credit for flit 160603
Requeued flit 160603
2
Received nack credit for flit 117171
Requeued flit 117171
5
5
5
2
Received nack credit for flit 128009
Requeued flit 128009
Received nack credit for flit 64377
Requeued flit 64377
3
Received nack credit for flit 168162
Requeued flit 168162
Received nack credit for flit 63723
Requeued flit 63723
Received nack credit for flit 89411
Requeued flit 89411
1
Received nack credit for flit 116979
Requeued flit 116979
4
1
Received nack credit for flit 149717
Requeued flit 149717
Received nack credit for flit 141992
Requeued flit 141992
1
Received nack credit for flit 149552
Requeued flit 149552
1
Received nack credit for flit 162267
Requeued flit 162267
1
Received nack credit for flit 168507
Requeued flit 168507
1
5
Received nack credit for flit 150523
Requeued flit 150523
1
Received nack credit for flit 103586
Requeued flit 103586
Received nack credit for flit 161844
Requeued flit 161844
4
3
3
Received nack credit for flit 76548
Requeued flit 76548
Received nack credit for flit 141107
Requeued flit 141107
Received nack credit for flit 103092
Requeued flit 103092
8
Received nack credit for flit 66109
Requeued flit 66109
6
2
13
5
Received nack credit for flit 103897
Requeued flit 103897
2
Received nack credit for flit 171626
Requeued flit 171626
Received nack credit for flit 153426
Requeued flit 153426
Received nack credit for flit 58255
Requeued flit 58255
1
Received nack credit for flit 111871
Requeued flit 111871
Received nack credit for flit 155362
Requeued flit 155362
9
2
Received nack credit for flit 62954
Requeued flit 62954
Received nack credit for flit 155658
Requeued flit 155658
3
5
1
Received nack credit for flit 74775
Requeued flit 74775
Received nack credit for flit 170862
Requeued flit 170862
Received nack credit for flit 171523
Requeued flit 171523
6
Received nack credit for flit 131760
Requeued flit 131760
2
3
8
Received nack credit for flit 152219
Requeued flit 152219
Received nack credit for flit 181858
Requeued flit 181858
Received nack credit for flit 90308
Requeued flit 90308
1
Received nack credit for flit 119125
Requeued flit 119125
5
6
Received nack credit for flit 83963
Requeued flit 83963
3
Received nack credit for flit 144615
Requeued flit 144615
Received nack credit for flit 93317
Requeued flit 93317
6
1
8
Received nack credit for flit 121854
Requeued flit 121854
Received nack credit for flit 90748
Requeued flit 90748
3
2
Received nack credit for flit 101659
Requeued flit 101659
Received nack credit for flit 154051
Requeued flit 154051
Received nack credit for flit 120056
Requeued flit 120056
2
Received nack credit for flit 148217
Requeued flit 148217
1
1
Received nack credit for flit 120180
Requeued flit 120180
Received nack credit for flit 151586
Requeued flit 151586
3
5
Received nack credit for flit 159841
Requeued flit 159841
2
Received nack credit for flit 168248
Requeued flit 168248
Received nack credit for flit 116339
Requeued flit 116339
3
Received nack credit for flit 72979
Requeued flit 72979
1
7
1
Received nack credit for flit 108869
Requeued flit 108869
Received nack credit for flit 149991
Requeued flit 149991
Received nack credit for flit 119412
Requeued flit 119412
9
Received nack credit for flit 65284
Requeued flit 65284
4
2
Received nack credit for flit 173594
Requeued flit 173594
Received nack credit for flit 155592
Requeued flit 155592
3
3
Received nack credit for flit 150706
Requeued flit 150706
Received nack credit for flit 98660
Requeued flit 98660
1
Received nack credit for flit 170435
Requeued flit 170435
2
Received nack credit for flit 136117
Requeued flit 136117
6
1
1
Received nack credit for flit 76007
Requeued flit 76007
1
1
Received nack credit for flit 172043
Requeued flit 172043
Received nack credit for flit 188009
Requeued flit 188009
Received nack credit for flit 157568
Requeued flit 157568
Received nack credit for flit 159925
Requeued flit 159925
4
1
Received nack credit for flit 127257
Requeued flit 127257
4
Received nack credit for flit 161845
Requeued flit 161845
3
Received nack credit for flit 154772
Requeued flit 154772
1
Received nack credit for flit 102034
Requeued flit 102034
Received nack credit for flit 155995
Requeued flit 155995
9
1
Received nack credit for flit 93647
Requeued flit 93647
4
Received nack credit for flit 173364
Requeued flit 173364
5
Received nack credit for flit 114710
Requeued flit 114710
Received nack credit for flit 162707
Requeued flit 162707
1
2
Received nack credit for flit 151245
Requeued flit 151245
4
Received nack credit for flit 157786
Requeued flit 157786
Received nack credit for flit 147293
Requeued flit 147293
3
3
Received nack credit for flit 124935
Requeued flit 124935
Received nack credit for flit 158713
Requeued flit 158713
1
5
Received nack credit for flit 179254
Requeued flit 179254
1
Received nack credit for flit 131792
Requeued flit 131792
Received nack credit for flit 163261
Requeued flit 163261
3
Received nack credit for flit 124089
Requeued flit 124089
1
1
Received nack credit for flit 176342
Requeued flit 176342
Received nack credit for flit 165197
Requeued flit 165197
1
3
1
Received nack credit for flit 162246
Requeued flit 162246
2
2
Received nack credit for flit 182937
Requeued flit 182937
4
Received nack credit for flit 154283
Requeued flit 154283
Received nack credit for flit 119245
Requeued flit 119245
Received nack credit for flit 162459
Requeued flit 162459
Received nack credit for flit 174457
Requeued flit 174457
1
1
Received nack credit for flit 176270
Requeued flit 176270
1
Received nack credit for flit 184709
Requeued flit 184709
Received nack credit for flit 182413
Requeued flit 182413
9
Received nack credit for flit 96881
Requeued flit 96881
3
Received nack credit for flit 166043
Requeued flit 166043
4
7
Received nack credit for flit 85297
Requeued flit 85297
2
Received nack credit for flit 73508
Requeued flit 73508
Received nack credit for flit 105367
Requeued flit 105367
5
1
Received nack credit for flit 81663
Requeued flit 81663
Received nack credit for flit 155189
Requeued flit 155189
2
2
Received nack credit for flit 129626
Requeued flit 129626
5
Received nack credit for flit 168520
Requeued flit 168520
3
1
Received nack credit for flit 121091
Requeued flit 121091
1
Received nack credit for flit 184813
Requeued flit 184813
1
Received nack credit for flit 179077
Requeued flit 179077
Received nack credit for flit 184115
Requeued flit 184115
Received nack credit for flit 184216
Requeued flit 184216
1
4
Received nack credit for flit 168021
Requeued flit 168021
Received nack credit for flit 158228
Requeued flit 158228
8
Received nack credit for flit 105855
Requeued flit 105855
4
1
1
Received nack credit for flit 82910
Requeued flit 82910
Received nack credit for flit 178553
Requeued flit 178553
Received nack credit for flit 130344
Requeued flit 130344
1
Received nack credit for flit 125022
Requeued flit 125022
2
1
Received nack credit for flit 157213
Requeued flit 157213
6
Received nack credit for flit 154950
Requeued flit 154950
Received nack credit for flit 149272
Requeued flit 149272
1
1
7
Received nack credit for flit 186781
Requeued flit 186781
Received nack credit for flit 121166
Requeued flit 121166
Received nack credit for flit 175064
Requeued flit 175064
4
Received nack credit for flit 171794
Requeued flit 171794
1
1
Received nack credit for flit 158877
Requeued flit 158877
Received nack credit for flit 171888
Requeued flit 171888
4
9
Received nack credit for flit 178351
Requeued flit 178351
Received nack credit for flit 75342
Requeued flit 75342
3
1
Received nack credit for flit 88123
Requeued flit 88123
Received nack credit for flit 172294
Requeued flit 172294
7
1
1
Received nack credit for flit 122646
Requeued flit 122646
5
Received nack credit for flit 171955
Requeued flit 171955
Received nack credit for flit 171240
Requeued flit 171240
2
5
1
Received nack credit for flit 76405
Requeued flit 76405
Received nack credit for flit 171802
Requeued flit 171802
Received nack credit for flit 182592
Requeued flit 182592
Received nack credit for flit 84890
Requeued flit 84890
5
Received nack credit for flit 148202
Requeued flit 148202
1
8
5
2
Received nack credit for flit 76520
Requeued flit 76520
Received nack credit for flit 123976
Requeued flit 123976
Received nack credit for flit 199994
Requeued flit 199994
Received nack credit for flit 115753
Requeued flit 115753
1
3
9
Received nack credit for flit 172551
Requeued flit 172551
Received nack credit for flit 173240
Requeued flit 173240
1
Received nack credit for flit 149620
Requeued flit 149620
5
Received nack credit for flit 173129
Requeued flit 173129
Received nack credit for flit 174408
Requeued flit 174408
5
1
Received nack credit for flit 81202
Requeued flit 81202
Received nack credit for flit 192190
Requeued flit 192190
1
2
Received nack credit for flit 159437
Requeued flit 159437
2
Received nack credit for flit 189948
Requeued flit 189948
2
Received nack credit for flit 190937
Requeued flit 190937
1
Received nack credit for flit 158041
Requeued flit 158041
Received nack credit for flit 183808
Requeued flit 183808
4
Received nack credit for flit 130171
Requeued flit 130171
2
Received nack credit for flit 135351
Requeued flit 135351
1
Received nack credit for flit 190225
Requeued flit 190225
3
1
1
Received nack credit for flit 141268
Requeued flit 141268
Received nack credit for flit 175661
Requeued flit 175661
Received nack credit for flit 187073
Requeued flit 187073
3
7
1
Received nack credit for flit 150270
Requeued flit 150270
Received nack credit for flit 161303
Requeued flit 161303
Received nack credit for flit 104450
Requeued flit 104450
2
3
Received nack credit for flit 174730
Requeued flit 174730
Received nack credit for flit 175808
Requeued flit 175808
1
1
3
Received nack credit for flit 177828
Requeued flit 177828
Received nack credit for flit 187248
Requeued flit 187248
Received nack credit for flit 88295
Requeued flit 88295
9
5
Received nack credit for flit 80829
Requeued flit 80829
4
Received nack credit for flit 78924
Requeued flit 78924
Received nack credit for flit 176401
Requeued flit 176401
6
3
Received nack credit for flit 176554
Requeued flit 176554
Received nack credit for flit 178451
Requeued flit 178451
1
3
1
Received nack credit for flit 158364
Requeued flit 158364
1
Received nack credit for flit 184670
Requeued flit 184670
Received nack credit for flit 189062
Requeued flit 189062
4
Received nack credit for flit 138956
Requeued flit 138956
Received nack credit for flit 83614
Requeued flit 83614
3
1
Received nack credit for flit 87724
Requeued flit 87724
9
Received nack credit for flit 176928
Requeued flit 176928
Received nack credit for flit 119853
Requeued flit 119853
5
1
Received nack credit for flit 187612
Requeued flit 187612
1
Received nack credit for flit 162569
Requeued flit 162569
5
Received nack credit for flit 191892
Requeued flit 191892
Received nack credit for flit 83627
Requeued flit 83627
1
Received nack credit for flit 195740
Requeued flit 195740
3
Received nack credit for flit 86209
Requeued flit 86209
4
1
2
Received nack credit for flit 128893
Requeued flit 128893
Received nack credit for flit 144822
Requeued flit 144822
Received nack credit for flit 161222
Requeued flit 161222
1
2
5
Received nack credit for flit 192667
Requeued flit 192667
Received nack credit for flit 203444
Requeued flit 203444
4
Received nack credit for flit 80297
Requeued flit 80297
4
Received nack credit for flit 133226
Requeued flit 133226
Received nack credit for flit 131982
Requeued flit 131982
5
7
Received nack credit for flit 179003
Requeued flit 179003
Received nack credit for flit 79592
Requeued flit 79592
3
Received nack credit for flit 95683
Requeued flit 95683
2
2
Received nack credit for flit 199801
Requeued flit 199801
Received nack credit for flit 196514
Requeued flit 196514
8
2
4
Received nack credit for flit 200218
Requeued flit 200218
Received nack credit for flit 169048
Requeued flit 169048
Received nack credit for flit 83751
Requeued flit 83751
4
1
2
Received nack credit for flit 179117
Requeued flit 179117
Received nack credit for flit 194272
Requeued flit 194272
Received nack credit for flit 131602
Requeued flit 131602
1
3
Received nack credit for flit 151336
Requeued flit 151336
Received nack credit for flit 199720
Requeued flit 199720
2
1
Received nack credit for flit 183969
Requeued flit 183969
Received nack credit for flit 151329
Requeued flit 151329
3
2
Received nack credit for flit 199017
Requeued flit 199017
Received nack credit for flit 133615
Requeued flit 133615
3
1
Received nack credit for flit 134083
Requeued flit 134083
Received nack credit for flit 199066
Requeued flit 199066
1
1
4
Received nack credit for flit 197047
Requeued flit 197047
3
Received nack credit for flit 86287
Requeued flit 86287
2
1
Received nack credit for flit 163559
Requeued flit 163559
1
1
Received nack credit for flit 200562
Requeued flit 200562
Received nack credit for flit 196103
Requeued flit 196103
Received nack credit for flit 163122
Requeued flit 163122
Received nack credit for flit 187561
Requeued flit 187561
6
Received nack credit for flit 156025
Requeued flit 156025
Received nack credit for flit 132444
Requeued flit 132444
1
4
5
Received nack credit for flit 138047
Requeued flit 138047
Received nack credit for flit 185054
Requeued flit 185054
Received nack credit for flit 84045
Requeued flit 84045
1
1
Received nack credit for flit 149133
Requeued flit 149133
Received nack credit for flit 198242
Requeued flit 198242
3
Received nack credit for flit 185342
Requeued flit 185342
1
6
6
6
Received nack credit for flit 160156
Requeued flit 160156
Received nack credit for flit 88176
Requeued flit 88176
Received nack credit for flit 194303
Requeued flit 194303
Received nack credit for flit 157370
Requeued flit 157370
1
Received nack credit for flit 202445
Requeued flit 202445
1
Received nack credit for flit 188871
Requeued flit 188871
2
1
Received nack credit for flit 203530
Requeued flit 203530
1
2
Received nack credit for flit 159615
Requeued flit 159615
Received nack credit for flit 153991
Requeued flit 153991
Received nack credit for flit 114812
Requeued flit 114812
1
1
Received nack credit for flit 188610
Requeued flit 188610
Received nack credit for flit 199754
Requeued flit 199754
4
6
2
Received nack credit for flit 198943
Requeued flit 198943
5
Received nack credit for flit 136184
Requeued flit 136184
Received nack credit for flit 115174
Requeued flit 115174
4
Received nack credit for flit 82832
Requeued flit 82832
5
Received nack credit for flit 167289
Requeued flit 167289
Received nack credit for flit 191635
Requeued flit 191635
1
3
Received nack credit for flit 164313
Requeued flit 164313
Received nack credit for flit 188960
Requeued flit 188960
1
6
Received nack credit for flit 203106
Requeued flit 203106
Received nack credit for flit 132585
Requeued flit 132585
2
Received nack credit for flit 117535
Requeued flit 117535
1
1
Received nack credit for flit 152437
Requeued flit 152437
Received nack credit for flit 167976
Requeued flit 167976
1
2
Received nack credit for flit 166617
Requeued flit 166617
Received nack credit for flit 167225
Requeued flit 167225
1
7
1
Received nack credit for flit 192978
Requeued flit 192978
1
Received nack credit for flit 115708
Requeued flit 115708
Received nack credit for flit 163850
Requeued flit 163850
Received nack credit for flit 168290
Requeued flit 168290
1
1
Received nack credit for flit 203873
Requeued flit 203873
1
Received nack credit for flit 166533
Requeued flit 166533
1
Received nack credit for flit 207648
Requeued flit 207648
1
Received nack credit for flit 194536
Requeued flit 194536
Received nack credit for flit 191402
Requeued flit 191402
3
Received nack credit for flit 205316
Requeued flit 205316
3
1
7
Received nack credit for flit 192053
Requeued flit 192053
Received nack credit for flit 207830
Requeued flit 207830
Received nack credit for flit 85005
Requeued flit 85005
6
3
1
1
2
4
Received nack credit for flit 105259
Requeued flit 105259
Received nack credit for flit 191752
Requeued flit 191752
Received nack credit for flit 204248
Requeued flit 204248
Received nack credit for flit 192951
Requeued flit 192951
3
Received nack credit for flit 160797
Requeued flit 160797
Received nack credit for flit 209041
Requeued flit 209041
Received nack credit for flit 205948
Requeued flit 205948
1
2
3
8
Received nack credit for flit 205529
Requeued flit 205529
Received nack credit for flit 174047
Requeued flit 174047
Received nack credit for flit 120884
Requeued flit 120884
Received nack credit for flit 87609
Requeued flit 87609
5
Received nack credit for flit 185031
Requeued flit 185031
1
3
3
Received nack credit for flit 207454
Requeued flit 207454
Received nack credit for flit 196654
Requeued flit 196654
Received nack credit for flit 142638
Requeued flit 142638
1
7
Received nack credit for flit 181766
Requeued flit 181766
Received nack credit for flit 198133
Requeued flit 198133
4
Received nack credit for flit 141621
Requeued flit 141621
2
Received nack credit for flit 222142
Requeued flit 222142
1
5
Received nack credit for flit 206211
Requeued flit 206211
Received nack credit for flit 109728
Requeued flit 109728
5
6
Received nack credit for flit 181044
Requeued flit 181044
Received nack credit for flit 159101
Requeued flit 159101
5
1
Received nack credit for flit 91518
Requeued flit 91518
Received nack credit for flit 212646
Requeued flit 212646
5
2
Received nack credit for flit 198221
Requeued flit 198221
5
Received nack credit for flit 207243
Requeued flit 207243
7
Received nack credit for flit 148540
Requeued flit 148540
1
Received nack credit for flit 190893
Requeued flit 190893
Received nack credit for flit 214741
Requeued flit 214741
3
Received nack credit for flit 99178
Requeued flit 99178
1
8
Received nack credit for flit 211323
Requeued flit 211323
Received nack credit for flit 88935
Requeued flit 88935
2
1
Received nack credit for flit 201292
Requeued flit 201292
Received nack credit for flit 213356
Requeued flit 213356
5
Received nack credit for flit 90872
Requeued flit 90872
1
2
Received nack credit for flit 203410
Requeued flit 203410
Received nack credit for flit 141575
Requeued flit 141575
4
5
Received nack credit for flit 199893
Requeued flit 199893
Received nack credit for flit 147757
Requeued flit 147757
5
Received nack credit for flit 94648
Requeued flit 94648
1
Received nack credit for flit 214408
Requeued flit 214408
1
2
Received nack credit for flit 172642
Requeued flit 172642
6
Received nack credit for flit 124627
Requeued flit 124627
3
1
4
3
Received nack credit for flit 119997
Requeued flit 119997
6
2
Received nack credit for flit 211252
Requeued flit 211252
Received nack credit for flit 149396
Requeued flit 149396
Received nack credit for flit 175062
Requeued flit 175062
Received nack credit for flit 205863
Requeued flit 205863
Received nack credit for flit 90040
Requeued flit 90040
Received nack credit for flit 142755
Requeued flit 142755
2
1
Received nack credit for flit 164026
Requeued flit 164026
4
4
1
3
Received nack credit for flit 173915
Requeued flit 173915
Received nack credit for flit 157002
Requeued flit 157002
Received nack credit for flit 100528
Requeued flit 100528
7
Received nack credit for flit 214696
Requeued flit 214696
4
Received nack credit for flit 200976
Requeued flit 200976
3
1
Received nack credit for flit 101307
Requeued flit 101307
4
Received nack credit for flit 201656
Requeued flit 201656
Received nack credit for flit 208296
Requeued flit 208296
Received nack credit for flit 215101
Requeued flit 215101
2
2
Received nack credit for flit 142097
Requeued flit 142097
Received nack credit for flit 212338
Requeued flit 212338
Received nack credit for flit 180179
Requeued flit 180179
1
Received nack credit for flit 215704
Requeued flit 215704
1
Received nack credit for flit 207825
Requeued flit 207825
5
3
Received nack credit for flit 198176
Requeued flit 198176
1
Received nack credit for flit 149342
Requeued flit 149342
3
1
7
Received nack credit for flit 215019
Requeued flit 215019
Received nack credit for flit 229513
Requeued flit 229513
Received nack credit for flit 218656
Requeued flit 218656
Received nack credit for flit 96975
Requeued flit 96975
1
1
6
5
Received nack credit for flit 209383
Requeued flit 209383
3
Received nack credit for flit 207482
Requeued flit 207482
Received nack credit for flit 100752
Requeued flit 100752
1
Received nack credit for flit 96065
Requeued flit 96065
Received nack credit for flit 182542
Requeued flit 182542
Received nack credit for flit 215472
Requeued flit 215472
4
Received nack credit for flit 164356
Requeued flit 164356
5
2
1
Received nack credit for flit 219363
Requeued flit 219363
Received nack credit for flit 127095
Requeued flit 127095
Received nack credit for flit 217412
Requeued flit 217412
3
3
1
Received nack credit for flit 202430
Requeued flit 202430
Received nack credit for flit 208106
Requeued flit 208106
Received nack credit for flit 179059
Requeued flit 179059
2
Received nack credit for flit 125440
Requeued flit 125440
3
1
7
Received nack credit for flit 204390
Requeued flit 204390
Received nack credit for flit 182411
Requeued flit 182411
Received nack credit for flit 147204
Requeued flit 147204
6
1
5
Received nack credit for flit 192943
Requeued flit 192943
Received nack credit for flit 220852
Requeued flit 220852
2
Received nack credit for flit 102802
Requeued flit 102802
Received nack credit for flit 222856
Requeued flit 222856
1
3
Received nack credit for flit 181234
Requeued flit 181234
Received nack credit for flit 210509
Requeued flit 210509
2
4
6
Received nack credit for flit 105145
Requeued flit 105145
Received nack credit for flit 216830
Requeued flit 216830
Received nack credit for flit 109123
Requeued flit 109123
8
1
4
Received nack credit for flit 97211
Requeued flit 97211
Received nack credit for flit 211217
Requeued flit 211217
10
Received nack credit for flit 212553
Requeued flit 212553
2
5
Received nack credit for flit 194658
Requeued flit 194658
6
Received nack credit for flit 171824
Requeued flit 171824
Received nack credit for flit 216684
Requeued flit 216684
1
Received nack credit for flit 99551
Requeued flit 99551
6
Received nack credit for flit 220872
Requeued flit 220872
Received nack credit for flit 124603
Requeued flit 124603
4
5
3
Received nack credit for flit 172690
Requeued flit 172690
5
Received nack credit for flit 126873
Requeued flit 126873
6
Received nack credit for flit 119023
Requeued flit 119023
8
Received nack credit for flit 215004
Requeued flit 215004
Received nack credit for flit 154962
Requeued flit 154962
Received nack credit for flit 98375
Requeued flit 98375
4
Received nack credit for flit 96015
Requeued flit 96015
1
1
1
Received nack credit for flit 183321
Requeued flit 183321
2
Received nack credit for flit 215210
Requeued flit 215210
Received nack credit for flit 221286
Requeued flit 221286
1
Received nack credit for flit 214530
Requeued flit 214530
8
Received nack credit for flit 211874
Requeued flit 211874
Received nack credit for flit 94840
Requeued flit 94840
3
2
Received nack credit for flit 224429
Requeued flit 224429
Received nack credit for flit 188735
Requeued flit 188735
3
6
Received nack credit for flit 157916
Requeued flit 157916
Received nack credit for flit 219287
Requeued flit 219287
1
1
Received nack credit for flit 223766
Requeued flit 223766
Received nack credit for flit 238217
Requeued flit 238217
1
3
3
9
Received nack credit for flit 240090
Requeued flit 240090
Received nack credit for flit 215778
Requeued flit 215778
Received nack credit for flit 225530
Requeued flit 225530
1
Received nack credit for flit 151561
Requeued flit 151561
Received nack credit for flit 188010
Requeued flit 188010
2
3
Received nack credit for flit 212199
Requeued flit 212199
1
Received nack credit for flit 213839
Requeued flit 213839
Received nack credit for flit 222359
Requeued flit 222359
1
1
Received nack credit for flit 189521
Requeued flit 189521
Received nack credit for flit 238464
Requeued flit 238464
6
Received nack credit for flit 106660
Requeued flit 106660
2
1
Received nack credit for flit 228762
Requeued flit 228762
Received nack credit for flit 227170
Requeued flit 227170
5
3
Received nack credit for flit 227320
Requeued flit 227320
2
Received nack credit for flit 226818
Requeued flit 226818
Received nack credit for flit 216085
Requeued flit 216085
5
2
1
Received nack credit for flit 241875
Requeued flit 241875
1
Received nack credit for flit 187205
Requeued flit 187205
Received nack credit for flit 157849
Requeued flit 157849
Received nack credit for flit 191663
Requeued flit 191663
6
Received nack credit for flit 227099
Requeued flit 227099
2
2
Received nack credit for flit 223020
Requeued flit 223020
5
Received nack credit for flit 225928
Requeued flit 225928
Received nack credit for flit 100412
Requeued flit 100412
1
6
1
1
1
Received nack credit for flit 223915
Requeued flit 223915
Received nack credit for flit 222317
Requeued flit 222317
Received nack credit for flit 203613
Requeued flit 203613
Received nack credit for flit 188811
Requeued flit 188811
5
Received nack credit for flit 100646
Requeued flit 100646
3
5
1
Received nack credit for flit 131844
Requeued flit 131844
Received nack credit for flit 223004
Requeued flit 223004
4
Received nack credit for flit 211364
Requeued flit 211364
6
Received nack credit for flit 231149
Requeued flit 231149
Received nack credit for flit 214887
Requeued flit 214887
1
1
Received nack credit for flit 191705
Requeued flit 191705
Received nack credit for flit 230906
Requeued flit 230906
4
Received nack credit for flit 225097
Requeued flit 225097
3
1
Received nack credit for flit 133298
Requeued flit 133298
Received nack credit for flit 223444
Requeued flit 223444
7
1
1
Received nack credit for flit 98845
Requeued flit 98845
Received nack credit for flit 230117
Requeued flit 230117
1
Received nack credit for flit 231278
Requeued flit 231278
Received nack credit for flit 223716
Requeued flit 223716
9
1
Received nack credit for flit 96546
Requeued flit 96546
3
Received nack credit for flit 228819
Requeued flit 228819
7
Received nack credit for flit 215551
Requeued flit 215551
Received nack credit for flit 164588
Requeued flit 164588
1
2
3
2
4
Received nack credit for flit 232184
Requeued flit 232184
Received nack credit for flit 215294
Requeued flit 215294
Received nack credit for flit 231652
Requeued flit 231652
Received nack credit for flit 154704
Requeued flit 154704
Received nack credit for flit 166785
Requeued flit 166785
4
Received nack credit for flit 217170
Requeued flit 217170
1
Received nack credit for flit 193099
Requeued flit 193099
5
1
1
Received nack credit for flit 214089
Requeued flit 214089
Received nack credit for flit 194342
Requeued flit 194342
1
Received nack credit for flit 196286
Requeued flit 196286
1
Received nack credit for flit 233300
Requeued flit 233300
Received nack credit for flit 233243
Requeued flit 233243
5
1
Received nack credit for flit 166329
Requeued flit 166329
Received nack credit for flit 222716
Requeued flit 222716
1
3
Received nack credit for flit 199000
Requeued flit 199000
2
Received nack credit for flit 170276
Requeued flit 170276
Received nack credit for flit 153206
Requeued flit 153206
7
Received nack credit for flit 189474
Requeued flit 189474
5
Received nack credit for flit 220568
Requeued flit 220568
2
6
Received nack credit for flit 229006
Requeued flit 229006
2
Received nack credit for flit 222375
Requeued flit 222375
Received nack credit for flit 220163
Requeued flit 220163
1
Received nack credit for flit 230896
Requeued flit 230896
2
1
5
2
6
1
Received nack credit for flit 187857
Requeued flit 187857
Received nack credit for flit 236547
Requeued flit 236547
Received nack credit for flit 225981
Requeued flit 225981
Received nack credit for flit 219450
Requeued flit 219450
Received nack credit for flit 234232
Requeued flit 234232
Received nack credit for flit 228368
Requeued flit 228368
1
2
Received nack credit for flit 231247
Requeued flit 231247
5
5
4
Received nack credit for flit 239515
Requeued flit 239515
1
4
Received nack credit for flit 164890
Requeued flit 164890
2
Received nack credit for flit 237703
Requeued flit 237703
Received nack credit for flit 220455
Requeued flit 220455
3
Received nack credit for flit 171918
Requeued flit 171918
Received nack credit for flit 173806
Requeued flit 173806
Received nack credit for flit 240906
Requeued flit 240906
4
2
Received nack credit for flit 222695
Requeued flit 222695
4
Received nack credit for flit 173976
Requeued flit 173976
Received nack credit for flit 106286
Requeued flit 106286
Received nack credit for flit 237107
Requeued flit 237107
5
Received nack credit for flit 108884
Requeued flit 108884
1
1
3
Received nack credit for flit 200960
Requeued flit 200960
Received nack credit for flit 233806
Requeued flit 233806
Received nack credit for flit 200709
Requeued flit 200709
6
1
4
4
Received nack credit for flit 236061
Requeued flit 236061
Received nack credit for flit 200709
Requeued flit 200709
5
2
Received nack credit for flit 221705
Requeued flit 221705
5
Received nack credit for flit 239897
Requeued flit 239897
Received nack credit for flit 155698
Requeued flit 155698
Received nack credit for flit 216226
Requeued flit 216226
Received nack credit for flit 237195
Requeued flit 237195
2
1
7
Received nack credit for flit 255325
Requeued flit 255325
1
Received nack credit for flit 239732
Requeued flit 239732
Received nack credit for flit 176546
Requeued flit 176546
Received nack credit for flit 236045
Requeued flit 236045
1
5
Received nack credit for flit 238039
Requeued flit 238039
Received nack credit for flit 235381
Requeued flit 235381
5
4
4
1
Received nack credit for flit 173268
Requeued flit 173268
Received nack credit for flit 235939
Requeued flit 235939
Received nack credit for flit 234765
Requeued flit 234765
Received nack credit for flit 222024
Requeued flit 222024
1
Received nack credit for flit 205151
Requeued flit 205151
1
1
Received nack credit for flit 232053
Requeued flit 232053
Received nack credit for flit 200048
Requeued flit 200048
4
7
Received nack credit for flit 241913
Requeued flit 241913
3
Received nack credit for flit 236491
Requeued flit 236491
Received nack credit for flit 177116
Requeued flit 177116
2
Received nack credit for flit 245306
Requeued flit 245306
1
5
Received nack credit for flit 241450
Requeued flit 241450
Received nack credit for flit 215601
Requeued flit 215601
7
4
Received nack credit for flit 163661
Requeued flit 163661
Received nack credit for flit 233949
Requeued flit 233949
2
5
Received nack credit for flit 192785
Requeued flit 192785
Received nack credit for flit 240591
Requeued flit 240591
6
Received nack credit for flit 226340
Requeued flit 226340
7
1
Received nack credit for flit 243575
Requeued flit 243575
Received nack credit for flit 219606
Requeued flit 219606
2
6
Received nack credit for flit 235152
Requeued flit 235152
Received nack credit for flit 224314
Requeued flit 224314
1
5
Received nack credit for flit 211691
Requeued flit 211691
Received nack credit for flit 109983
Requeued flit 109983
3
3
3
3
Received nack credit for flit 177332
Requeued flit 177332
Received nack credit for flit 194558
Requeued flit 194558
4
Received nack credit for flit 227434
Requeued flit 227434
Received nack credit for flit 242868
Requeued flit 242868
Received nack credit for flit 200211
Requeued flit 200211
1
7
2
5
Received nack credit for flit 246738
Requeued flit 246738
Received nack credit for flit 230950
Requeued flit 230950
Received nack credit for flit 227937
Requeued flit 227937
Received nack credit for flit 181023
Requeued flit 181023
4
4
Received nack credit for flit 177594
Requeued flit 177594
Received nack credit for flit 184391
Requeued flit 184391
1
7
4
7
1
Received nack credit for flit 245178
Requeued flit 245178
Received nack credit for flit 224088
Requeued flit 224088
Received nack credit for flit 114712
Requeued flit 114712
Received nack credit for flit 243787
Requeued flit 243787
Received nack credit for flit 111060
Requeued flit 111060
5
4
Received nack credit for flit 248152
Requeued flit 248152
Received nack credit for flit 179620
Requeued flit 179620
8
4
1
Received nack credit for flit 108195
Requeued flit 108195
Received nack credit for flit 239207
Requeued flit 239207
Received nack credit for flit 132267
Requeued flit 132267
1
2
4
10
4
2
4
Received nack credit for flit 263140
Requeued flit 263140
Received nack credit for flit 103350
Requeued flit 103350
Received nack credit for flit 179914
Requeued flit 179914
Received nack credit for flit 206343
Requeued flit 206343
Received nack credit for flit 152874
Requeued flit 152874
1
Received nack credit for flit 236750
Requeued flit 236750
Received nack credit for flit 247700
Requeued flit 247700
1
2
Received nack credit for flit 245147
Requeued flit 245147
Received nack credit for flit 160090
Requeued flit 160090
12
2
Received nack credit for flit 110469
Requeued flit 110469
1
Received nack credit for flit 234294
Requeued flit 234294
3
Received nack credit for flit 214158
Requeued flit 214158
1
Received nack credit for flit 245957
Requeued flit 245957
Received nack credit for flit 242018
Requeued flit 242018
1
Received nack credit for flit 214912
Requeued flit 214912
3
1
Received nack credit for flit 234694
Requeued flit 234694
Received nack credit for flit 247238
Requeued flit 247238
1
4
Received nack credit for flit 247140
Requeued flit 247140
4
Received nack credit for flit 181517
Requeued flit 181517
Received nack credit for flit 250222
Requeued flit 250222
1
4
3
Received nack credit for flit 250011
Requeued flit 250011
Received nack credit for flit 246540
Requeued flit 246540
1
Received nack credit for flit 223827
Requeued flit 223827
10
Received nack credit for flit 248184
Requeued flit 248184
5
Received nack credit for flit 175221
Requeued flit 175221
4
Received nack credit for flit 111708
Requeued flit 111708
Received nack credit for flit 235605
Requeued flit 235605
5
6
6
Received nack credit for flit 236756
Requeued flit 236756
[...]
Received nack credit for flit 288941
Requeued flit 288941
1
1
5
2
3
Received nack credit for flit 290851
Requeued flit 290851
Received nack credit for flit 263758
Requeued flit 263758
Received nack credit for flit 295243
Requeued flit 295243
Received nack credit for flit 294045
Requeued flit 294045
4
2
4
Received nack credit for flit 309878
Requeued flit 309878
6
Received nack credit for flit 308019
Requeued flit 308019
Received nack credit for flit 288823
Requeued flit 288823
Received nack credit for flit 279444
Requeued flit 279444
Received nack credit for flit 150841
Requeued flit 150841
4
1
Received nack credit for flit 263126
Requeued flit 263126
Received nack credit for flit 309410
Requeued flit 309410
2
Received nack credit for flit 295871
Requeued flit 295871
8
Received nack credit for flit 145269
Requeued flit 145269
3
1
4
Received nack credit for flit 295696
Requeued flit 295696
Received nack credit for flit 327110
Requeued flit 327110
Received nack credit for flit 318985
Requeued flit 318985
2
1
3
Received nack credit for flit 310081
Requeued flit 310081
5
Received nack credit for flit 297874
Requeued flit 297874
Received nack credit for flit 310402
Requeued flit 310402
2
Received nack credit for flit 160103
Requeued flit 160103
Received nack credit for flit 300046
Requeued flit 300046
4
1
6
Received nack credit for flit 296756
Requeued flit 296756
Received nack credit for flit 295280
Requeued flit 295280
2
Received nack credit for flit 190633
Requeued flit 190633
Received nack credit for flit 309316
Requeued flit 309316
4
1
Received nack credit for flit 294791
Requeued flit 294791
Received nack credit for flit 315267
Requeued flit 315267
6
Received nack credit for flit 147085
Requeued flit 147085
1
1
5
Received nack credit for flit 296516
Requeued flit 296516
1
Received nack credit for flit 262163
Requeued flit 262163
Received nack credit for flit 323245
Requeued flit 323245
5
Received nack credit for flit 316314
Requeued flit 316314
Received nack credit for flit 319066
Requeued flit 319066
1
Received nack credit for flit 316846
Requeued flit 316846
4
Received nack credit for flit 316220
Requeued flit 316220
1
Received nack credit for flit 317978
Requeued flit 317978
8
Received nack credit for flit 254174
Requeued flit 254174
2
2
Received nack credit for flit 299679
Requeued flit 299679
3
6
Received nack credit for flit 316192
Requeued flit 316192
6
Received nack credit for flit 194927
Requeued flit 194927
Received nack credit for flit 268637
Requeued flit 268637
6
Received nack credit for flit 148070
Requeued flit 148070
2
1
6
Received nack credit for flit 297857
Requeued flit 297857
Received nack credit for flit 314836
Requeued flit 314836
Received nack credit for flit 326077
Requeued flit 326077
Received nack credit for flit 194300
Requeued flit 194300
1
1
1
Received nack credit for flit 318528
Requeued flit 318528
Received nack credit for flit 325691
Requeued flit 325691
Received nack credit for flit 325734
Requeued flit 325734
1
Received nack credit for flit 318873
Requeued flit 318873
5
4
6
Received nack credit for flit 292480
Requeued flit 292480
Received nack credit for flit 218590
Requeued flit 218590
Received nack credit for flit 204463
Requeued flit 204463
3
5
4
7
1
Received nack credit for flit 199747
Requeued flit 199747
Received nack credit for flit 155758
Requeued flit 155758
1
Received nack credit for flit 325983
Requeued flit 325983
Received nack credit for flit 220748
Requeued flit 220748
Received nack credit for flit 270942
Requeued flit 270942
3
1
Received nack credit for flit 328866
Requeued flit 328866
Received nack credit for flit 301898
Requeued flit 301898
1
Received nack credit for flit 302579
Requeued flit 302579
4
Received nack credit for flit 302990
Requeued flit 302990
4
Received nack credit for flit 193090
Requeued flit 193090
1
Received nack credit for flit 316760
Requeued flit 316760
Received nack credit for flit 320481
Requeued flit 320481
8
Received nack credit for flit 154534
Requeued flit 154534
3
2
Received nack credit for flit 301658
Requeued flit 301658
1
Received nack credit for flit 267854
Requeued flit 267854
Received nack credit for flit 301622
Requeued flit 301622
5
1
1
Received nack credit for flit 200342
Requeued flit 200342
Received nack credit for flit 306142
Requeued flit 306142
3
2
Received nack credit for flit 308048
Requeued flit 308048
8
Received nack credit for flit 318892
Requeued flit 318892
6
Received nack credit for flit 241890
Requeued flit 241890
Received nack credit for flit 155855
Requeued flit 155855
Received nack credit for flit 298757
Requeued flit 298757
7
2
4
Received nack credit for flit 296721
Requeued flit 296721
Received nack credit for flit 155055
Requeued flit 155055
1
Received nack credit for flit 304253
Requeued flit 304253
Received nack credit for flit 323992
Requeued flit 323992
3
1
3
Received nack credit for flit 304180
Requeued flit 304180
Received nack credit for flit 319971
Requeued flit 319971
1
Received nack credit for flit 304343
Requeued flit 304343
9
7
Received nack credit for flit 202926
Requeued flit 202926
4
Received nack credit for flit 311934
Requeued flit 311934
2
1
Received nack credit for flit 277316
Requeued flit 277316
Received nack credit for flit 311863
Requeued flit 311863
Received nack credit for flit 324266
Requeued flit 324266
Received nack credit for flit 329339
Requeued flit 329339
1
1
1
4
Received nack credit for flit 325119
Requeued flit 325119
1
Received nack credit for flit 325615
Requeued flit 325615
Received nack credit for flit 337173
Requeued flit 337173
1
Received nack credit for flit 310801
Requeued flit 310801
Received nack credit for flit 304850
Requeued flit 304850
Received nack credit for flit 321561
Requeued flit 321561
1
Received nack credit for flit 325412
Requeued flit 325412
5
Received nack credit for flit 160859
Requeued flit 160859
1
2
1
Received nack credit for flit 306700
Requeued flit 306700
Received nack credit for flit 330352
Requeued flit 330352
4
Received nack credit for flit 322637
Requeued flit 322637
1
1
Received nack credit for flit 278300
Requeued flit 278300
Received nack credit for flit 337469
Requeued flit 337469
Received nack credit for flit 303535
Requeued flit 303535
2
1
2
Received nack credit for flit 299380
Requeued flit 299380
Received nack credit for flit 324680
Requeued flit 324680
Received nack credit for flit 238714
Requeued flit 238714
5
2
Received nack credit for flit 160052
Requeued flit 160052
Received nack credit for flit 248510
Requeued flit 248510
1
Received nack credit for flit 335440
Requeued flit 335440
8
1
Received nack credit for flit 274696
Requeued flit 274696
Received nack credit for flit 334767
Requeued flit 334767
1
1
Received nack credit for flit 332708
Requeued flit 332708
Received nack credit for flit 335737
Requeued flit 335737
1
3
2
Received nack credit for flit 308967
Requeued flit 308967
7
1
1
Received nack credit for flit 301871
Requeued flit 301871
Received nack credit for flit 306555
Requeued flit 306555
Received nack credit for flit 161000
Requeued flit 161000
1
Received nack credit for flit 328598
Requeued flit 328598
Received nack credit for flit 335200
Requeued flit 335200
4
4
Received nack credit for flit 326005
Requeued flit 326005
6
Received nack credit for flit 204195
Requeued flit 204195
7
Received nack credit for flit 280882
Requeued flit 280882
Received nack credit for flit 335823
Requeued flit 335823
Received nack credit for flit 305705
Requeued flit 305705
2
5
1
3
3
Received nack credit for flit 277440
Requeued flit 277440
Received nack credit for flit 161596
Requeued flit 161596
Received nack credit for flit 326971
Requeued flit 326971
Received nack credit for flit 340688
Requeued flit 340688
Received nack credit for flit 241692
Requeued flit 241692
1
2
Received nack credit for flit 312159
Requeued flit 312159
Received nack credit for flit 307306
Requeued flit 307306
1
1
Received nack credit for flit 340528
Requeued flit 340528
9
Received nack credit for flit 317212
Requeued flit 317212
1
Received nack credit for flit 206235
Requeued flit 206235
Received nack credit for flit 315513
Requeued flit 315513
4
Received nack credit for flit 328527
Requeued flit 328527
1
3
Received nack credit for flit 330404
Requeued flit 330404
4
2
Received nack credit for flit 211627
Requeued flit 211627
Received nack credit for flit 333814
Requeued flit 333814
Received nack credit for flit 304779
Requeued flit 304779
3
5
Received nack credit for flit 206240
Requeued flit 206240
Received nack credit for flit 284751
Requeued flit 284751
2
Received nack credit for flit 337710
Requeued flit 337710
1
Received nack credit for flit 332325
Requeued flit 332325
1
2
Received nack credit for flit 337386
Requeued flit 337386
Received nack credit for flit 312014
Requeued flit 312014
1
Received nack credit for flit 341053
Requeued flit 341053
1
Received nack credit for flit 341184
Requeued flit 341184
1
1
Received nack credit for flit 314856
Requeued flit 314856
6
Received nack credit for flit 341291
Requeued flit 341291
3
Received nack credit for flit 284493
Requeued flit 284493
Received nack credit for flit 283953
Requeued flit 283953
7
5
Received nack credit for flit 162169
Requeued flit 162169
Received nack credit for flit 330038
Requeued flit 330038
7
5
Received nack credit for flit 287942
Requeued flit 287942
Received nack credit for flit 222548
Requeued flit 222548
1
Received nack credit for flit 318171
Requeued flit 318171
9
3
3
Received nack credit for flit 225420
Requeued flit 225420
Received nack credit for flit 347849
Requeued flit 347849
8
Received nack credit for flit 332529
Requeued flit 332529
3
Received nack credit for flit 220180
Requeued flit 220180
Received nack credit for flit 316710
Requeued flit 316710
4
1
1
Received nack credit for flit 180201
Requeued flit 180201
Received nack credit for flit 349059
Requeued flit 349059
3
1
Received nack credit for flit 344320
Requeued flit 344320
5
Received nack credit for flit 333800
Requeued flit 333800
Received nack credit for flit 339084
Requeued flit 339084
1
Received nack credit for flit 307531
Requeued flit 307531
5
Received nack credit for flit 323022
Requeued flit 323022
4
1
Received nack credit for flit 227361
Requeued flit 227361
Received nack credit for flit 209760
Requeued flit 209760
Received nack credit for flit 345194
Requeued flit 345194
2
2
1
Received nack credit for flit 334668
Requeued flit 334668
Received nack credit for flit 282160
Requeued flit 282160
Received nack credit for flit 314713
Requeued flit 314713
1
5
Received nack credit for flit 340112
Requeued flit 340112
1
Received nack credit for flit 226081
Requeued flit 226081
4
Received nack credit for flit 345758
Requeued flit 345758
1
1
1
Received nack credit for flit 329966
Requeued flit 329966
Received nack credit for flit 338444
Requeued flit 338444
Received nack credit for flit 339905
Requeued flit 339905
Received nack credit for flit 317722
Requeued flit 317722
7
6
1
Received nack credit for flit 329337
Requeued flit 329337
Received nack credit for flit 321590
Requeued flit 321590
Received nack credit for flit 344361
Requeued flit 344361
1
3
Received nack credit for flit 336999
Requeued flit 336999
Received nack credit for flit 334761
Requeued flit 334761
8
Received nack credit for flit 336602
Requeued flit 336602
5
1
8
6
4
Received nack credit for flit 319389
Requeued flit 319389
Received nack credit for flit 226938
Requeued flit 226938
Received nack credit for flit 336602
Requeued flit 336602
Received nack credit for flit 331105
Requeued flit 331105
Received nack credit for flit 227123
Requeued flit 227123
5
Received nack credit for flit 337689
Requeued flit 337689
2
3
Received nack credit for flit 328279
Requeued flit 328279
Received nack credit for flit 338889
Requeued flit 338889
6
3
Received nack credit for flit 161719
Requeued flit 161719
Received nack credit for flit 218594
Requeued flit 218594
4
3
Received nack credit for flit 297803
Requeued flit 297803
Received nack credit for flit 323313
Requeued flit 323313
2
Received nack credit for flit 337447
Requeued flit 337447
1
Received nack credit for flit 347429
Requeued flit 347429
1
Received nack credit for flit 349865
Requeued flit 349865
1
Received nack credit for flit 344176
Requeued flit 344176
6
Received nack credit for flit 338488
Requeued flit 338488
2
Received nack credit for flit 338913
Requeued flit 338913
7
Received nack credit for flit 172933
Requeued flit 172933
5
7
Received nack credit for flit 167909
Requeued flit 167909
Received nack credit for flit 172624
Requeued flit 172624
2
2
Received nack credit for flit 255197
Requeued flit 255197
Received nack credit for flit 325284
Requeued flit 325284
2
1
Received nack credit for flit 289654
Requeued flit 289654
Received nack credit for flit 323769
Requeued flit 323769
1
Received nack credit for flit 322305
Requeued flit 322305
1
Received nack credit for flit 341519
Requeued flit 341519
3
Received nack credit for flit 349973
Requeued flit 349973
2
Received nack credit for flit 262350
Requeued flit 262350
1
7
3
5
Received nack credit for flit 346640
Requeued flit 346640
Received nack credit for flit 348335
Requeued flit 348335
Received nack credit for flit 224959
Requeued flit 224959
Received nack credit for flit 326483
Requeued flit 326483
4
Received nack credit for flit 297574
Requeued flit 297574
5
4
Received nack credit for flit 332636
Requeued flit 332636
1
Received nack credit for flit 187529
Requeued flit 187529
1
Received nack credit for flit 346799
Requeued flit 346799
Received nack credit for flit 353488
Requeued flit 353488
1
6
Received nack credit for flit 327538
Requeued flit 327538
3
Received nack credit for flit 342286
Requeued flit 342286
Received nack credit for flit 342444
Requeued flit 342444
1
9
3
Received nack credit for flit 343844
Requeued flit 343844
Received nack credit for flit 231412
Requeued flit 231412
1
Received nack credit for flit 164410
Requeued flit 164410
1
Received nack credit for flit 355652
Requeued flit 355652
Received nack credit for flit 349250
Requeued flit 349250
3
5
Received nack credit for flit 345475
Requeued flit 345475
4
Received nack credit for flit 248311
Requeued flit 248311
Received nack credit for flit 354819
Requeued flit 354819
2
4
Received nack credit for flit 259506
Requeued flit 259506
Received nack credit for flit 192939
Requeued flit 192939
3
1
4
Received nack credit for flit 345939
Requeued flit 345939
Received nack credit for flit 329181
Requeued flit 329181
Received nack credit for flit 319447
Requeued flit 319447
6
Received nack credit for flit 244556
Requeued flit 244556
2
6
5
1
Received nack credit for flit 323051
Requeued flit 323051
Received nack credit for flit 240763
Requeued flit 240763
Received nack credit for flit 351276
Requeued flit 351276
Received nack credit for flit 301261
Requeued flit 301261
3
5
Received nack credit for flit 330964
Requeued flit 330964
Received nack credit for flit 306040
Requeued flit 306040
3
Received nack credit for flit 329575
Requeued flit 329575
1
Received nack credit for flit 337728
Requeued flit 337728
2
4
Received nack credit for flit 331586
Requeued flit 331586
4
2
3
Received nack credit for flit 196348
Requeued flit 196348
Received nack credit for flit 302551
Requeued flit 302551
Received nack credit for flit 228790
Requeued flit 228790
4
Received nack credit for flit 337820
Requeued flit 337820
Received nack credit for flit 334104
Requeued flit 334104
4
3
1
Received nack credit for flit 348925
Requeued flit 348925
Received nack credit for flit 300757
Requeued flit 300757
Received nack credit for flit 350210
Requeued flit 350210
4
5
Received nack credit for flit 302804
Requeued flit 302804
Received nack credit for flit 305595
Requeued flit 305595
2
2
Received nack credit for flit 266672
Requeued flit 266672
6
Received nack credit for flit 321933
Requeued flit 321933
Received nack credit for flit 166569
Requeued flit 166569
6
3
5
Received nack credit for flit 303968
Requeued flit 303968
Received nack credit for flit 336054
Requeued flit 336054
4
Received nack credit for flit 335395
Requeued flit 335395
7
Received nack credit for flit 308716
Requeued flit 308716
Received nack credit for flit 349820
Requeued flit 349820
5
1
Received nack credit for flit 187508
Requeued flit 187508
Received nack credit for flit 360405
Requeued flit 360405
9
5
2
6
Received nack credit for flit 169214
Requeued flit 169214
Received nack credit for flit 351753
Requeued flit 351753
Received nack credit for flit 238662
Requeued flit 238662
3
Received nack credit for flit 351669
Requeued flit 351669
1
Received nack credit for flit 308236
Requeued flit 308236
2
7
Received nack credit for flit 335251
Requeued flit 335251
Received nack credit for flit 329223
Requeued flit 329223
Received nack credit for flit 173394
Requeued flit 173394
1
Received nack credit for flit 363088
Requeued flit 363088
3
3
Received nack credit for flit 265075
Requeued flit 265075
4
9
Received nack credit for flit 242465
Requeued flit 242465
5
1
Received nack credit for flit 308361
Requeued flit 308361
Received nack credit for flit 240313
Requeued flit 240313
Received nack credit for flit 337149
Requeued flit 337149
Received nack credit for flit 363680
Requeued flit 363680
4
4
2
Received nack credit for flit 243292
Requeued flit 243292
Received nack credit for flit 194256
Requeued flit 194256
1
Received nack credit for flit 276833
Requeued flit 276833
Received nack credit for flit 363761
Requeued flit 363761
2
Received nack credit for flit 332732
Requeued flit 332732
2
5
1
Received nack credit for flit 176433
Requeued flit 176433
Received nack credit for flit 308389
Requeued flit 308389
3
Received nack credit for flit 337119
Requeued flit 337119
Received nack credit for flit 237647
Requeued flit 237647
1
Received nack credit for flit 339705
Requeued flit 339705
2
5
5
8
Received nack credit for flit 346628
Requeued flit 346628
Received nack credit for flit 262021
Requeued flit 262021
Received nack credit for flit 180620
Requeued flit 180620
Received nack credit for flit 356203
Requeued flit 356203
1
Received nack credit for flit 363702
Requeued flit 363702
7
3
Received nack credit for flit 178882
Requeued flit 178882
3
4
Received nack credit for flit 315460
Requeued flit 315460
Received nack credit for flit 340817
Requeued flit 340817
1
Received nack credit for flit 356758
Requeued flit 356758
Received nack credit for flit 341870
Requeued flit 341870
1
1
Received nack credit for flit 341259
Requeued flit 341259
Received nack credit for flit 356979
Requeued flit 356979
2
Received nack credit for flit 368353
Requeued flit 368353
1
7
1
Received nack credit for flit 369289
Requeued flit 369289
5
Received nack credit for flit 248051
Requeued flit 248051
Received nack credit for flit 358913
Requeued flit 358913
Received nack credit for flit 357601
Requeued flit 357601
1
1
1
Received nack credit for flit 365044
Requeued flit 365044
9
Class 0:
Packet latency average = 1884.98
	minimum = 5
	maximum = 7157
Network latency average = 1559.24
	minimum = 5
	maximum = 7143
Slowest packet = 162742
Flit latency average = 1559.24
	minimum = 5
	maximum = 7143
Slowest flit = 164559
Fragmentation average = 0
	minimum = 0
	maximum = 0
Injected packet rate average = 0.617628
	minimum = 0.4131 (at node 41)
	maximum = 0.9034 (at node 20)
Accepted packet rate average = 0.499627
	minimum = 0.4772 (at node 21)
	maximum = 0.5139 (at node 14)
Injected flit rate average = 0.617628
	minimum = 0.4131 (at node 41)
	maximum = 0.9034 (at node 20)
Accepted flit rate average= 0.499627
	minimum = 0.4772 (at node 21)
	maximum = 0.5139 (at node 14)
Injected packet length average = 1
Accepted packet length average = 1
Total in-flight flits = 75559 (0 measured)
latency change    = 1
throughput change = 1
Average latency for class 0 exceeded 500 cycles. Aborting simulation.
Too many sample periods needed to converge
Simulation unstable, ending ...
Total run time 57.5656
