BEGIN Configuration File: examples/ecc_mesh88_config_1_0.850_packet_5
// $Id$

// Copyright (c) 2007-2015, Trustees of The Leland Stanford Junior University
// All rights reserved.
//
// Redistribution and use in source and binary forms, with or without
// modification, are permitted provided that the following conditions are met:
//
// Redistributions of source code must retain the above copyright notice, this
// list of conditions and the following disclaimer.
// Redistributions in binary form must reproduce the above copyright notice,
// this list of conditions and the following disclaimer in the documentation
// and/or other materials provided with the distribution.
//
// THIS SOFTWARE IS PROVIDED BY THE COPYRIGHT HOLDERS AND CONTRIBUTORS "AS IS"
// AND ANY EXPRESS OR IMPLIED WARRANTIES, INCLUDING, BUT NOT LIMITED TO, THE
// IMPLIED WARRANTIES OF MERCHANTABILITY AND FITNESS FOR A PARTICULAR PURPOSE
// ARE DISCLAIMED. IN NO EVENT SHALL THE COPYRIGHT OWNER OR CONTRIBUTORS BE
// LIABLE FOR ANY DIRECT, INDIRECT, INCIDENTAL, SPECIAL, EXEMPLARY, OR
// CONSEQUENTIAL DAMAGES (INCLUDING, BUT NOT LIMITED TO, PROCUREMENT OF
// SUBSTITUTE GOODS OR SERVICES; LOSS OF USE, DATA, OR PROFITS; OR BUSINESS
// INTERRUPTION) HOWEVER CAUSED AND ON ANY THEORY OF LIABILITY, WHETHER IN
// CONTRACT, STRICT LIABILITY, OR TORT (INCLUDING NEGLIGENCE OR OTHERWISE)
// ARISING IN ANY WAY OUT OF THE USE OF THIS SOFTWARE, EVEN IF ADVISED OF THE
// POSSIBILITY OF SUCH DAMAGE.

// Dragonfly
//




vc_buf_size = 256;


wait_for_tail_credit = 0;

//
// Router architecture
//
vc_allocator = separable_input_first; 
sw_allocator = separable_input_first;
alloc_iters  = 1;

credit_delay   = 2;
routing_delay  = 0;
vc_alloc_delay = 1;
sw_alloc_delay = 1;
st_final_delay = 1;

input_speedup     = 1;
output_speedup    = 1;
internal_speedup  = 2.0;


warmup_periods = 3;
sim_count          = 1;

sample_period  = 10000;  


routing_function = dor;
num_vcs     = 2;

priority = none;
traffic       = uniform; 

injection_rate = 0.85;
packet_size = 1;
injection_rate_uses_flits = 1;

topology = mesh;

k  = 8;
n  = 2;

fer = 5;
ecc = link;

watch_out=-;
//watch_file = watch.txt;

ecc = packet;

stats_out = examples/ecc_mesh88_config_1_0.850_packet_5.m;

END Configuration File: examples/ecc_mesh88_config_1_0.850_packet_5
Additional hops: 7
Set signal latency stall time: 14
Reenqueueing errored packet 8272 at time 316
Additional hops: 18
Set signal latency stall time: 22
Reenqueueing errored packet 5387 at time 381
Additional hops: 20
Set signal latency stall time: 4
Reenqueueing errored packet 18710 at time 429
Additional hops: 22
Set signal latency stall time: 4
Reenqueueing errored packet 47593 at time 886
Additional hops: 28
Set signal latency stall time: 12
Reenqueueing errored packet 47082 at time 995
Additional hops: 34
Set signal latency stall time: 12
Reenqueueing errored packet 77338 at time 1867
Additional hops: 42
Set signal latency stall time: 16
Reenqueueing errored packet 73089 at time 1935
Additional hops: 45
Set signal latency stall time: 6
Reenqueueing errored packet 111026 at time 2318
Additional hops: 59
Set signal latency stall time: 28
Reenqueueing errored packet 57745 at time 3245
Additional hops: 65
Set signal latency stall time: 12
Reenqueueing errored packet 116877 at time 3660
Additional hops: 74
Set signal latency stall time: 18
Additional hops: 83
Set signal latency stall time: 18
Additional hops: 89
Set signal latency stall time: 12
Reenqueueing errored packet 127415 at time 3926
Reenqueueing errored packet 82836 at time 3928
Additional hops: 98
Set signal latency stall time: 18
Reenqueueing errored packet 86065 at time 4026
Additional hops: 103
Set signal latency stall time: 10
Reenqueueing errored packet 140368 at time 4237
Additional hops: 106
Set signal latency stall time: 6
Reenqueueing errored packet 181447 at time 4372
Additional hops: 112
Set signal latency stall time: 12
Reenqueueing errored packet 202158 at time 4761
Additional hops: 118
Set signal latency stall time: 12
Reenqueueing errored packet 216229 at time 5348
Additional hops: 124
Set signal latency stall time: 12
Reenqueueing errored packet 218564 at time 5716
Additional hops: 129
Set signal latency stall time: 10
Additional hops: 134
Set signal latency stall time: 10
Reenqueueing errored packet 257123 at time 6136
Additional hops: 142
Set signal latency stall time: 16
Reenqueueing errored packet 257747 at time 6566
Additional hops: 149
Set signal latency stall time: 14
Reenqueueing errored packet 282807 at time 7343
Additional hops: 157
Set signal latency stall time: 16
Additional hops: 166
Set signal latency stall time: 18
Reenqueueing errored packet 310864 at time 8234
Reenqueueing errored packet 162437 at time 8243
Additional hops: 177
Set signal latency stall time: 22
Additional hops: 183
Set signal latency stall time: 12
Reenqueueing errored packet 350498 at time 9559
Class 0:
Packet latency average = 1570.81
	minimum = 5
	maximum = 8455
Network latency average = 1387.28
	minimum = 5
	maximum = 6616
Slowest packet = 150653
Flit latency average = 1387.28
	minimum = 5
	maximum = 6616
Slowest flit = 177185
Fragmentation average = 0
	minimum = 0
	maximum = 0
Injected packet rate average = 0.617517
	minimum = 0.4361 (at node 54)
	maximum = 0.8589 (at node 43)
Accepted packet rate average = 0.50312
	minimum = 0.4824 (at node 21)
	maximum = 0.5172 (at node 14)
Injected flit rate average = 0.617517
	minimum = 0.4361 (at node 54)
	maximum = 0.8589 (at node 43)
Accepted flit rate average= 0.50312
	minimum = 0.4824 (at node 21)
	maximum = 0.5172 (at node 14)
Injected packet length average = 1
Accepted packet length average = 1
Total in-flight flits = 73251 (0 measured)
latency change    = 1
throughput change = 1
Average latency for class 0 exceeded 500 cycles. Aborting simulation.
Too many sample periods needed to converge
Simulation unstable, ending ...
Total run time 55.3358
