BEGIN Configuration File: examples/ecc_mesh88_config_1_0.100_link_4
// $Id$

// Copyright (c) 2007-2015, Trustees of The Leland Stanford Junior University
// All rights reserved.
//
// Redistribution and use in source and binary forms, with or without
// modification, are permitted provided that the following conditions are met:
//
// Redistributions of source code must retain the above copyright notice, this
// list of conditions and the following disclaimer.
// Redistributions in binary form must reproduce the above copyright notice,
// this list of conditions and the following disclaimer in the documentation
// and/or other materials provided with the distribution.
//
// THIS SOFTWARE IS PROVIDED BY THE COPYRIGHT HOLDERS AND CONTRIBUTORS "AS IS"
// AND ANY EXPRESS OR IMPLIED WARRANTIES, INCLUDING, BUT NOT LIMITED TO, THE
// IMPLIED WARRANTIES OF MERCHANTABILITY AND FITNESS FOR A PARTICULAR PURPOSE
// ARE DISCLAIMED. IN NO EVENT SHALL THE COPYRIGHT OWNER OR CONTRIBUTORS BE
// LIABLE FOR ANY DIRECT, INDIRECT, INCIDENTAL, SPECIAL, EXEMPLARY, OR
// CONSEQUENTIAL DAMAGES (INCLUDING, BUT NOT LIMITED TO, PROCUREMENT OF
// SUBSTITUTE GOODS OR SERVICES; LOSS OF USE, DATA, OR PROFITS; OR BUSINESS
// INTERRUPTION) HOWEVER CAUSED AND ON ANY THEORY OF LIABILITY, WHETHER IN
// CONTRACT, STRICT LIABILITY, OR TORT (INCLUDING NEGLIGENCE OR OTHERWISE)
// ARISING IN ANY WAY OUT OF THE USE OF THIS SOFTWARE, EVEN IF ADVISED OF THE
// POSSIBILITY OF SUCH DAMAGE.

// Dragonfly
//




vc_buf_size = 256;


wait_for_tail_credit = 0;

//
// Router architecture
//
vc_allocator = separable_input_first; 
sw_allocator = separable_input_first;
alloc_iters  = 1;

credit_delay   = 2;
routing_delay  = 0;
vc_alloc_delay = 1;
sw_alloc_delay = 1;
st_final_delay = 1;

input_speedup     = 1;
output_speedup    = 1;
internal_speedup  = 2.0;


warmup_periods = 3;
sim_count          = 1;

sample_period  = 10000;  


routing_function = dor;
num_vcs     = 2;

priority = none;
traffic       = uniform; 

injection_rate = 0.1;
packet_size = 1;
injection_rate_uses_flits = 1;

topology = mesh;

k  = 8;
n  = 2;

fer = 4;
ecc = link;

watch_out=-;
//watch_file = watch.txt;

ecc = link;

stats_out = examples/ecc_mesh88_config_1_0.100_link_4.m;

END Configuration File: examples/ecc_mesh88_config_1_0.100_link_4
9
Received nack credit for flit 2647
Requeued flit 2647
6
Received nack credit for flit 3177
Requeued flit 3177
1
Received nack credit for flit 4551
Requeued flit 4551
6
Received nack credit for flit 4710
Requeued flit 4710
4
Received nack credit for flit 5948
Requeued flit 5948
2
Received nack credit for flit 9611
Requeued flit 9611
4
Received nack credit for flit 12147
Requeued flit 12147
1
Received nack credit for flit 12774
Requeued flit 12774
6
Received nack credit for flit 15652
Requeued flit 15652
1
Received nack credit for flit 17238
Requeued flit 17238
1
Received nack credit for flit 17329
Requeued flit 17329
1
Received nack credit for flit 22049
Requeued flit 22049
1
Received nack credit for flit 22537
Requeued flit 22537
1
Received nack credit for flit 31339
Requeued flit 31339
5
Received nack credit for flit 36097
Requeued flit 36097
4
Received nack credit for flit 36203
Requeued flit 36203
1
Received nack credit for flit 40943
Requeued flit 40943
7
Received nack credit for flit 41124
Requeued flit 41124
4
Received nack credit for flit 46416
Requeued flit 46416
3
Received nack credit for flit 48880
Requeued flit 48880
4
Received nack credit for flit 49247
Requeued flit 49247
3
Received nack credit for flit 56487
Requeued flit 56487
7
Received nack credit for flit 58544
Requeued flit 58544
4
Received nack credit for flit 61697
Requeued flit 61697
1
Received nack credit for flit 62855
Requeued flit 62855
1
Received nack credit for flit 63505
Requeued flit 63505
Class 0:
Packet latency average = 20.9739
	minimum = 5
	maximum = 76
Network latency average = 20.9739
	minimum = 5
	maximum = 76
Slowest packet = 58544
Flit latency average = 20.9739
	minimum = 5
	maximum = 76
Slowest flit = 58544
Fragmentation average = 0
	minimum = 0
	maximum = 0
Injected packet rate average = 0.100072
	minimum = 0.0951 (at node 19)
	maximum = 0.1066 (at node 35)
Accepted packet rate average = 0.0998703
	minimum = 0.0933 (at node 36)
	maximum = 0.1055 (at node 51)
Injected flit rate average = 0.100072
	minimum = 0.0951 (at node 19)
	maximum = 0.1066 (at node 35)
Accepted flit rate average= 0.0998703
	minimum = 0.0933 (at node 36)
	maximum = 0.1055 (at node 51)
Injected packet length average = 1
Accepted packet length average = 1
Total in-flight flits = 129 (0 measured)
latency change    = 1
throughput change = 1
1
Received nack credit for flit 64095
Requeued flit 64095
6
Received nack credit for flit 66073
Requeued flit 66073
4
Received nack credit for flit 67034
Requeued flit 67034
4
Received nack credit for flit 69196
Requeued flit 69196
6
Received nack credit for flit 72708
Requeued flit 72708
2
Received nack credit for flit 73385
Requeued flit 73385
6
Received nack credit for flit 74441
Requeued flit 74441
1
Received nack credit for flit 74954
Requeued flit 74954
1
Received nack credit for flit 75883
Requeued flit 75883
1
4
Received nack credit for flit 76437
Requeued flit 76437
Received nack credit for flit 76398
Requeued flit 76398
3
Received nack credit for flit 78098
Requeued flit 78098
1
Received nack credit for flit 79839
Requeued flit 79839
8
Received nack credit for flit 80224
Requeued flit 80224
1
Received nack credit for flit 82009
Requeued flit 82009
1
Received nack credit for flit 82860
Requeued flit 82860
1
Received nack credit for flit 84102
Requeued flit 84102
1
Received nack credit for flit 86087
Requeued flit 86087
7
Received nack credit for flit 86661
Requeued flit 86661
2
7
Received nack credit for flit 95578
Requeued flit 95578
Received nack credit for flit 95513
Requeued flit 95513
2
Received nack credit for flit 97271
Requeued flit 97271
4
Received nack credit for flit 104307
Requeued flit 104307
5
Received nack credit for flit 105165
Requeued flit 105165
1
Received nack credit for flit 106650
Requeued flit 106650
6
Received nack credit for flit 106809
Requeued flit 106809
1
Received nack credit for flit 108886
Requeued flit 108886
10
Received nack credit for flit 108852
Requeued flit 108852
1
Received nack credit for flit 109177
Requeued flit 109177
1
Received nack credit for flit 111592
Requeued flit 111592
2
Received nack credit for flit 111760
Requeued flit 111760
2
Received nack credit for flit 113642
Requeued flit 113642
5
Received nack credit for flit 113957
Requeued flit 113957
1
Received nack credit for flit 116889
Requeued flit 116889
6
Received nack credit for flit 117097
Requeued flit 117097
2
Received nack credit for flit 117828
Requeued flit 117828
4
Received nack credit for flit 118525
Requeued flit 118525
9
Received nack credit for flit 118974
Requeued flit 118974
2
Received nack credit for flit 120163
Requeued flit 120163
1
Received nack credit for flit 120917
Requeued flit 120917
3
Received nack credit for flit 121228
Requeued flit 121228
9
Received nack credit for flit 123116
Requeued flit 123116
3
Received nack credit for flit 123756
Requeued flit 123756
6
Received nack credit for flit 124444
Requeued flit 124444
Class 0:
Packet latency average = 20.9984
	minimum = 5
	maximum = 76
Network latency average = 20.9984
	minimum = 5
	maximum = 76
Slowest packet = 58544
Flit latency average = 20.9984
	minimum = 5
	maximum = 76
Slowest flit = 58544
Fragmentation average = 0
	minimum = 0
	maximum = 0
Injected packet rate average = 0.099868
	minimum = 0.09435 (at node 39)
	maximum = 0.10425 (at node 45)
Accepted packet rate average = 0.0997602
	minimum = 0.0956 (at node 46)
	maximum = 0.104 (at node 1)
Injected flit rate average = 0.099868
	minimum = 0.09435 (at node 39)
	maximum = 0.10425 (at node 45)
Accepted flit rate average= 0.0997602
	minimum = 0.0956 (at node 46)
	maximum = 0.104 (at node 1)
Injected packet length average = 1
Accepted packet length average = 1
Total in-flight flits = 138 (0 measured)
latency change    = 0.00116707
throughput change = 0.00110421
1
Received nack credit for flit 127916
Requeued flit 127916
5
Received nack credit for flit 131126
Requeued flit 131126
7
Received nack credit for flit 131369
Requeued flit 131369
1
5
Received nack credit for flit 132499
Requeued flit 132499
Received nack credit for flit 132447
Requeued flit 132447
3
Received nack credit for flit 133395
Requeued flit 133395
4
Received nack credit for flit 136153
Requeued flit 136153
5
Received nack credit for flit 138810
Requeued flit 138810
8
Received nack credit for flit 140097
Requeued flit 140097
2
Received nack credit for flit 141329
Requeued flit 141329
6
4
Received nack credit for flit 142168
Requeued flit 142168
Received nack credit for flit 142108
Requeued flit 142108
1
Received nack credit for flit 142974
Requeued flit 142974
2
Received nack credit for flit 144501
Requeued flit 144501
2
Received nack credit for flit 144574
Requeued flit 144574
3
Received nack credit for flit 146765
Requeued flit 146765
7
Received nack credit for flit 147911
Requeued flit 147911
1
Received nack credit for flit 150449
Requeued flit 150449
1
Received nack credit for flit 151265
Requeued flit 151265
3
Received nack credit for flit 152470
Requeued flit 152470
4
Received nack credit for flit 155324
Requeued flit 155324
1
Received nack credit for flit 156728
Requeued flit 156728
4
Received nack credit for flit 157206
Requeued flit 157206
7
Received nack credit for flit 158917
Requeued flit 158917
2
Received nack credit for flit 159837
Requeued flit 159837
3
Received nack credit for flit 160872
Requeued flit 160872
1
Received nack credit for flit 166532
Requeued flit 166532
9
Received nack credit for flit 170296
Requeued flit 170296
1
Received nack credit for flit 172887
Requeued flit 172887
1
Received nack credit for flit 173084
Requeued flit 173084
1
Received nack credit for flit 176028
Requeued flit 176028
7
Received nack credit for flit 176506
Requeued flit 176506
7
Received nack credit for flit 179044
Requeued flit 179044
1
Received nack credit for flit 180003
Requeued flit 180003
5
Received nack credit for flit 180669
Requeued flit 180669
3
Received nack credit for flit 181277
Requeued flit 181277
1
Received nack credit for flit 181870
Requeued flit 181870
6
Received nack credit for flit 183844
Requeued flit 183844
1
Received nack credit for flit 187940
Requeued flit 187940
9
Received nack credit for flit 190822
Requeued flit 190822
Class 0:
Packet latency average = 20.9619
	minimum = 5
	maximum = 61
Network latency average = 20.9619
	minimum = 5
	maximum = 61
Slowest packet = 142108
Flit latency average = 20.9619
	minimum = 5
	maximum = 61
Slowest flit = 142108
Fragmentation average = 0
	minimum = 0
	maximum = 0
Injected packet rate average = 0.0994
	minimum = 0.0925 (at node 14)
	maximum = 0.1095 (at node 26)
Accepted packet rate average = 0.0994266
	minimum = 0.0929 (at node 57)
	maximum = 0.1056 (at node 8)
Injected flit rate average = 0.0994
	minimum = 0.0925 (at node 14)
	maximum = 0.1095 (at node 26)
Accepted flit rate average= 0.0994266
	minimum = 0.0929 (at node 57)
	maximum = 0.1056 (at node 8)
Injected packet length average = 1
Accepted packet length average = 1
Total in-flight flits = 121 (0 measured)
latency change    = 0.00174143
throughput change = 0.00335518
Warmed up ...Time used is 30000 cycles
3
Received nack credit for flit 191497
Requeued flit 191497
3
Received nack credit for flit 192266
Requeued flit 192266
1
Received nack credit for flit 195862
Requeued flit 195862
4
Received nack credit for flit 197076
Requeued flit 197076
1
Received nack credit for flit 202550
Requeued flit 202550
5
Received nack credit for flit 202646
Requeued flit 202646
5
Received nack credit for flit 204606
Requeued flit 204606
1
Received nack credit for flit 205002
Requeued flit 205002
3
Received nack credit for flit 210095
Requeued flit 210095
1
Received nack credit for flit 210460
Requeued flit 210460
2
Received nack credit for flit 210560
Requeued flit 210560
1
Received nack credit for flit 211151
Requeued flit 211151
1
Received nack credit for flit 211406
Requeued flit 211406
1
Received nack credit for flit 212283
Requeued flit 212283
4
Received nack credit for flit 214634
Requeued flit 214634
4
Received nack credit for flit 215899
Requeued flit 215899
4
Received nack credit for flit 216317
Requeued flit 216317
5
Received nack credit for flit 217129
Requeued flit 217129
3
Received nack credit for flit 218606
Requeued flit 218606
5
Received nack credit for flit 218954
Requeued flit 218954
4
Received nack credit for flit 220349
Requeued flit 220349
1
1
Received nack credit for flit 220808
Requeued flit 220808
Received nack credit for flit 220872
Requeued flit 220872
6
Received nack credit for flit 226383
Requeued flit 226383
1
Received nack credit for flit 232366
Requeued flit 232366
1
Received nack credit for flit 232550
Requeued flit 232550
3
Received nack credit for flit 235843
Requeued flit 235843
3
Received nack credit for flit 236439
Requeued flit 236439
6
Received nack credit for flit 236894
Requeued flit 236894
1
Received nack credit for flit 237588
Requeued flit 237588
1
Received nack credit for flit 238554
Requeued flit 238554
3
Received nack credit for flit 241853
Requeued flit 241853
1
Received nack credit for flit 242708
Requeued flit 242708
5
Received nack credit for flit 244885
Requeued flit 244885
2
Received nack credit for flit 245405
Requeued flit 245405
1
Received nack credit for flit 246500
Requeued flit 246500
5
Received nack credit for flit 248707
Requeued flit 248707
5
Received nack credit for flit 250013
Requeued flit 250013
7
Received nack credit for flit 251667
Requeued flit 251667
Class 0:
Packet latency average = 20.9599
	minimum = 5
	maximum = 66
Network latency average = 20.9599
	minimum = 5
	maximum = 66
Slowest packet = 237588
Flit latency average = 20.9664
	minimum = 5
	maximum = 66
Slowest flit = 237588
Fragmentation average = 0
	minimum = 0
	maximum = 0
Injected packet rate average = 0.0996812
	minimum = 0.0925 (at node 25)
	maximum = 0.1057 (at node 58)
Accepted packet rate average = 0.0996859
	minimum = 0.0923 (at node 21)
	maximum = 0.1055 (at node 28)
Injected flit rate average = 0.0996812
	minimum = 0.0925 (at node 25)
	maximum = 0.1057 (at node 58)
Accepted flit rate average= 0.0996859
	minimum = 0.0923 (at node 21)
	maximum = 0.1055 (at node 28)
Injected packet length average = 1
Accepted packet length average = 1
Total in-flight flits = 118 (118 measured)
latency change    = 9.31193e-05
throughput change = 0.00260192
3
Received nack credit for flit 255953
Requeued flit 255953
3
Received nack credit for flit 258018
Requeued flit 258018
3
Received nack credit for flit 259136
Requeued flit 259136
4
Received nack credit for flit 261153
Requeued flit 261153
2
Received nack credit for flit 262581
Requeued flit 262581
2
Received nack credit for flit 263104
Requeued flit 263104
3
Received nack credit for flit 265822
Requeued flit 265822
9
Received nack credit for flit 267056
Requeued flit 267056
7
Received nack credit for flit 268015
Requeued flit 268015
1
Received nack credit for flit 269807
Requeued flit 269807
3
Received nack credit for flit 270391
Requeued flit 270391
3
Received nack credit for flit 271654
Requeued flit 271654
7
Received nack credit for flit 273141
Requeued flit 273141
1
Received nack credit for flit 273668
Requeued flit 273668
4
Received nack credit for flit 274899
Requeued flit 274899
1
Received nack credit for flit 276528
Requeued flit 276528
1
Received nack credit for flit 277019
Requeued flit 277019
5
Received nack credit for flit 277063
Requeued flit 277063
1
Received nack credit for flit 277752
Requeued flit 277752
1
Received nack credit for flit 278484
Requeued flit 278484
2
Received nack credit for flit 281991
Requeued flit 281991
10
Received nack credit for flit 282144
Requeued flit 282144
3
Received nack credit for flit 283984
Requeued flit 283984
1
Received nack credit for flit 288817
Requeued flit 288817
1
Received nack credit for flit 289347
Requeued flit 289347
2
Received nack credit for flit 289836
Requeued flit 289836
1
Received nack credit for flit 292563
Requeued flit 292563
5
Received nack credit for flit 296895
Requeued flit 296895
1
Received nack credit for flit 298025
Requeued flit 298025
1
Received nack credit for flit 300045
Requeued flit 300045
2
Received nack credit for flit 300956
Requeued flit 300956
4
Received nack credit for flit 301868
Requeued flit 301868
8
1
Received nack credit for flit 302484
Requeued flit 302484
Received nack credit for flit 302284
Requeued flit 302284
1
Received nack credit for flit 304475
Requeued flit 304475
6
Received nack credit for flit 309385
Requeued flit 309385
5
Received nack credit for flit 310384
Requeued flit 310384
1
Received nack credit for flit 311378
Requeued flit 311378
7
Received nack credit for flit 311446
Requeued flit 311446
1
Received nack credit for flit 311951
Requeued flit 311951
8
Received nack credit for flit 313345
Requeued flit 313345
5
Received nack credit for flit 316402
Requeued flit 316402
1
Received nack credit for flit 317526
Requeued flit 317526
2
Received nack credit for flit 317567
Requeued flit 317567
Class 0:
Packet latency average = 20.9628
	minimum = 5
	maximum = 66
Network latency average = 20.9628
	minimum = 5
	maximum = 66
Slowest packet = 237588
Flit latency average = 20.9661
	minimum = 5
	maximum = 66
Slowest flit = 237588
Fragmentation average = 0
	minimum = 0
	maximum = 0
Injected packet rate average = 0.0998688
	minimum = 0.09675 (at node 34)
	maximum = 0.1042 (at node 26)
Accepted packet rate average = 0.09985
	minimum = 0.09295 (at node 21)
	maximum = 0.10505 (at node 28)
Injected flit rate average = 0.0998688
	minimum = 0.09675 (at node 34)
	maximum = 0.1042 (at node 26)
Accepted flit rate average= 0.09985
	minimum = 0.09295 (at node 21)
	maximum = 0.10505 (at node 28)
Injected packet length average = 1
Accepted packet length average = 1
Total in-flight flits = 145 (145 measured)
latency change    = 0.000137581
throughput change = 0.00164309
1
Received nack credit for flit 323015
Requeued flit 323015
2
Received nack credit for flit 324332
Requeued flit 324332
4
Received nack credit for flit 326005
Requeued flit 326005
3
Received nack credit for flit 328346
Requeued flit 328346
2
Received nack credit for flit 328901
Requeued flit 328901
5
Received nack credit for flit 329682
Requeued flit 329682
1
Received nack credit for flit 334516
Requeued flit 334516
2
Received nack credit for flit 336618
Requeued flit 336618
6
Received nack credit for flit 337044
Requeued flit 337044
2
Received nack credit for flit 337866
Requeued flit 337866
1
Received nack credit for flit 338157
Requeued flit 338157
2
Received nack credit for flit 338670
Requeued flit 338670
6
Received nack credit for flit 341804
Requeued flit 341804
4
Received nack credit for flit 342045
Requeued flit 342045
8
Received nack credit for flit 343380
Requeued flit 343380
5
Received nack credit for flit 344269
Requeued flit 344269
2
Received nack credit for flit 346880
Requeued flit 346880
2
Received nack credit for flit 348130
Requeued flit 348130
3
Received nack credit for flit 350902
Requeued flit 350902
5
Received nack credit for flit 352097
Requeued flit 352097
1
Received nack credit for flit 352418
Requeued flit 352418
3
Received nack credit for flit 356235
Requeued flit 356235
2
Received nack credit for flit 356752
Requeued flit 356752
2
Received nack credit for flit 359786
Requeued flit 359786
2
Received nack credit for flit 360144
Requeued flit 360144
8
Received nack credit for flit 362916
Requeued flit 362916
5
Received nack credit for flit 365485
Requeued flit 365485
1
Received nack credit for flit 367744
Requeued flit 367744
1
Received nack credit for flit 368634
Requeued flit 368634
1
Received nack credit for flit 369732
Requeued flit 369732
3
Received nack credit for flit 370994
Requeued flit 370994
4
Received nack credit for flit 371934
Requeued flit 371934
2
2
Received nack credit for flit 372569
Requeued flit 372569
Received nack credit for flit 372593
Requeued flit 372593
4
Received nack credit for flit 372875
Requeued flit 372875
3
Received nack credit for flit 373292
Requeued flit 373292
6
Received nack credit for flit 374336
Requeued flit 374336
3
Received nack credit for flit 375492
Requeued flit 375492
1
Received nack credit for flit 375994
Requeued flit 375994
4
Received nack credit for flit 377039
Requeued flit 377039
1
Received nack credit for flit 379742
Requeued flit 379742
3
Received nack credit for flit 380188
Requeued flit 380188
1
Received nack credit for flit 381285
Requeued flit 381285
1
Received nack credit for flit 381586
Requeued flit 381586
Class 0:
Packet latency average = 20.9808
	minimum = 5
	maximum = 75
Network latency average = 20.9808
	minimum = 5
	maximum = 75
Slowest packet = 334516
Flit latency average = 20.9829
	minimum = 5
	maximum = 75
Slowest flit = 334516
Fragmentation average = 0
	minimum = 0
	maximum = 0
Injected packet rate average = 0.0999271
	minimum = 0.0950333 (at node 43)
	maximum = 0.103167 (at node 3)
Accepted packet rate average = 0.0999318
	minimum = 0.0949 (at node 21)
	maximum = 0.105133 (at node 52)
Injected flit rate average = 0.0999271
	minimum = 0.0950333 (at node 43)
	maximum = 0.103167 (at node 3)
Accepted flit rate average= 0.0999318
	minimum = 0.0949 (at node 21)
	maximum = 0.105133 (at node 52)
Injected packet length average = 1
Accepted packet length average = 1
Total in-flight flits = 112 (112 measured)
latency change    = 0.000857212
throughput change = 0.000818267
Draining all recorded packets ...
Draining remaining packets ...
Time taken is 60078 cycles
====== Overall Traffic Statistics ======
====== Traffic class 0 ======
Packet latency average = 20.983 (1 samples)
	minimum = 5 (1 samples)
	maximum = 75 (1 samples)
Network latency average = 20.983 (1 samples)
	minimum = 5 (1 samples)
	maximum = 75 (1 samples)
Flit latency average = 20.9863 (1 samples)
	minimum = 5 (1 samples)
	maximum = 75 (1 samples)
Fragmentation average = 0 (1 samples)
	minimum = 0 (1 samples)
	maximum = 0 (1 samples)
Injected packet rate average = 0.0999271 (1 samples)
	minimum = 0.0950333 (1 samples)
	maximum = 0.103167 (1 samples)
Accepted packet rate average = 0.0999318 (1 samples)
	minimum = 0.0949 (1 samples)
	maximum = 0.105133 (1 samples)
Injected flit rate average = 0.0999271 (1 samples)
	minimum = 0.0950333 (1 samples)
	maximum = 0.103167 (1 samples)
Accepted flit rate average = 0.0999318 (1 samples)
	minimum = 0.0949 (1 samples)
	maximum = 0.105133 (1 samples)
Injected packet size average = 1 (1 samples)
Accepted packet size average = 1 (1 samples)
Hops average = 6.24616 (1 samples)
Total run time 53.2534
