BEGIN Configuration File: examples/ecc_mesh88_config_1_0.050_packet_3
// $Id$

// Copyright (c) 2007-2015, Trustees of The Leland Stanford Junior University
// All rights reserved.
//
// Redistribution and use in source and binary forms, with or without
// modification, are permitted provided that the following conditions are met:
//
// Redistributions of source code must retain the above copyright notice, this
// list of conditions and the following disclaimer.
// Redistributions in binary form must reproduce the above copyright notice,
// this list of conditions and the following disclaimer in the documentation
// and/or other materials provided with the distribution.
//
// THIS SOFTWARE IS PROVIDED BY THE COPYRIGHT HOLDERS AND CONTRIBUTORS "AS IS"
// AND ANY EXPRESS OR IMPLIED WARRANTIES, INCLUDING, BUT NOT LIMITED TO, THE
// IMPLIED WARRANTIES OF MERCHANTABILITY AND FITNESS FOR A PARTICULAR PURPOSE
// ARE DISCLAIMED. IN NO EVENT SHALL THE COPYRIGHT OWNER OR CONTRIBUTORS BE
// LIABLE FOR ANY DIRECT, INDIRECT, INCIDENTAL, SPECIAL, EXEMPLARY, OR
// CONSEQUENTIAL DAMAGES (INCLUDING, BUT NOT LIMITED TO, PROCUREMENT OF
// SUBSTITUTE GOODS OR SERVICES; LOSS OF USE, DATA, OR PROFITS; OR BUSINESS
// INTERRUPTION) HOWEVER CAUSED AND ON ANY THEORY OF LIABILITY, WHETHER IN
// CONTRACT, STRICT LIABILITY, OR TORT (INCLUDING NEGLIGENCE OR OTHERWISE)
// ARISING IN ANY WAY OUT OF THE USE OF THIS SOFTWARE, EVEN IF ADVISED OF THE
// POSSIBILITY OF SUCH DAMAGE.

// Dragonfly
//




vc_buf_size = 256;


wait_for_tail_credit = 0;

//
// Router architecture
//
vc_allocator = separable_input_first; 
sw_allocator = separable_input_first;
alloc_iters  = 1;

credit_delay   = 2;
routing_delay  = 0;
vc_alloc_delay = 1;
sw_alloc_delay = 1;
st_final_delay = 1;

input_speedup     = 1;
output_speedup    = 1;
internal_speedup  = 2.0;


warmup_periods = 3;
sim_count          = 1;

sample_period  = 10000;  


routing_function = dor;
num_vcs     = 2;

priority = none;
traffic       = uniform; 

injection_rate = 0.05;
packet_size = 1;
injection_rate_uses_flits = 1;

topology = mesh;

k  = 8;
n  = 2;

fer = 3;
ecc = link;

watch_out=-;
//watch_file = watch.txt;

ecc = packet;

stats_out = examples/ecc_mesh88_config_1_0.050_packet_3.m;

END Configuration File: examples/ecc_mesh88_config_1_0.050_packet_3
Additional hops: 9
Set signal latency stall time: 18
Reenqueueing errored packet 114 at time 86
Additional hops: 16
Set signal latency stall time: 14
Reenqueueing errored packet 515 at time 202
Additional hops: 27
Set signal latency stall time: 22
Reenqueueing errored packet 539 at time 227
Additional hops: 36
Set signal latency stall time: 18
Reenqueueing errored packet 864 at time 318
Additional hops: 45
Set signal latency stall time: 18
Reenqueueing errored packet 951 at time 347
Additional hops: 49
Set signal latency stall time: 8
Reenqueueing errored packet 1091 at time 365
Additional hops: 57
Set signal latency stall time: 16
Additional hops: 62
Set signal latency stall time: 10
Reenqueueing errored packet 1341 at time 466
Reenqueueing errored packet 1404 at time 470
Additional hops: 69
Set signal latency stall time: 14
Reenqueueing errored packet 1719 at time 582
Additional hops: 75
Set signal latency stall time: 12
Reenqueueing errored packet 1798 at time 601
Additional hops: 87
Set signal latency stall time: 24
Reenqueueing errored packet 1821 at time 639
Additional hops: 90
Set signal latency stall time: 6
Reenqueueing errored packet 2254 at time 744
Additional hops: 99
Set signal latency stall time: 18
Reenqueueing errored packet 2348 at time 803
Additional hops: 101
Set signal latency stall time: 4
Reenqueueing errored packet 2472 at time 810
Additional hops: 119
Set signal latency stall time: 36
Reenqueueing errored packet 2348 at time 869
Additional hops: 129
Set signal latency stall time: 20
Reenqueueing errored packet 2689 at time 921
Additional hops: 137
Set signal latency stall time: 16
Additional hops: 142
Set signal latency stall time: 10
Reenqueueing errored packet 2994 at time 1006
Reenqueueing errored packet 3061 at time 1016
Additional hops: 148
Set signal latency stall time: 12
Reenqueueing errored packet 3087 at time 1030
Additional hops: 160
Set signal latency stall time: 24
Reenqueueing errored packet 3192 at time 1095
Additional hops: 172
Set signal latency stall time: 24
Additional hops: 183
Set signal latency stall time: 22
Reenqueueing errored packet 3329 at time 1146
Reenqueueing errored packet 3389 at time 1156
Additional hops: 188
Set signal latency stall time: 10
Reenqueueing errored packet 3546 at time 1172
Additional hops: 190
Set signal latency stall time: 4
Reenqueueing errored packet 3672 at time 1195
Additional hops: 193
Set signal latency stall time: 6
Reenqueueing errored packet 3729 at time 1217
Additional hops: 198
Set signal latency stall time: 10
Additional hops: 204
Set signal latency stall time: 12
Reenqueueing errored packet 3780 at time 1237
Reenqueueing errored packet 3729 at time 1241
Additional hops: 213
Set signal latency stall time: 18
Additional hops: 215
Set signal latency stall time: 4
Reenqueueing errored packet 4079 at time 1327
Additional hops: 220
Set signal latency stall time: 10
Reenqueueing errored packet 3995 at time 1331
Reenqueueing errored packet 4071 at time 1338
Additional hops: 227
Set signal latency stall time: 14
Reenqueueing errored packet 4104 at time 1360
Additional hops: 229
Set signal latency stall time: 4
Additional hops: 238
Set signal latency stall time: 18
Reenqueueing errored packet 4330 at time 1405
Additional hops: 247
Set signal latency stall time: 18
Reenqueueing errored packet 4273 at time 1423
Reenqueueing errored packet 4319 at time 1436
Additional hops: 254
Set signal latency stall time: 14
Reenqueueing errored packet 4560 at time 1501
Additional hops: 261
Set signal latency stall time: 14
Reenqueueing errored packet 4687 at time 1549
Additional hops: 267
Set signal latency stall time: 12
Reenqueueing errored packet 4945 at time 1617
Additional hops: 273
Set signal latency stall time: 12
Reenqueueing errored packet 4997 at time 1631
Additional hops: 283
Set signal latency stall time: 20
Reenqueueing errored packet 5020 at time 1657
Additional hops: 288
Set signal latency stall time: 10
Reenqueueing errored packet 5155 at time 1676
Additional hops: 296
Set signal latency stall time: 16
Additional hops: 301
Set signal latency stall time: 10
Reenqueueing errored packet 5332 at time 1733
Reenqueueing errored packet 5289 at time 1735
Additional hops: 309
Set signal latency stall time: 16
Reenqueueing errored packet 5360 at time 1755
Additional hops: 319
Set signal latency stall time: 20
Reenqueueing errored packet 5423 at time 1788
Additional hops: 329
Set signal latency stall time: 20
Additional hops: 335
Set signal latency stall time: 12
Reenqueueing errored packet 5763 at time 1884
Reenqueueing errored packet 5716 at time 1887
Additional hops: 341
Set signal latency stall time: 12
Reenqueueing errored packet 5873 at time 1916
Additional hops: 352
Set signal latency stall time: 22
Reenqueueing errored packet 5937 at time 1963
Additional hops: 361
Set signal latency stall time: 18
Reenqueueing errored packet 6209 at time 2035
Additional hops: 375
Set signal latency stall time: 28
Reenqueueing errored packet 6303 at time 2092
Additional hops: 384
Set signal latency stall time: 18
Reenqueueing errored packet 6466 at time 2118
Additional hops: 388
Set signal latency stall time: 8
Reenqueueing errored packet 6897 at time 2223
Additional hops: 398
Set signal latency stall time: 20
Reenqueueing errored packet 7046 at time 2299
Additional hops: 404
Set signal latency stall time: 12
Additional hops: 408
Set signal latency stall time: 8
Reenqueueing errored packet 7193 at time 2322
Reenqueueing errored packet 7248 at time 2323
Additional hops: 415
Set signal latency stall time: 14
Reenqueueing errored packet 7370 at time 2377
Additional hops: 426
Set signal latency stall time: 22
Reenqueueing errored packet 7496 at time 2434
Additional hops: 432
Set signal latency stall time: 12
Reenqueueing errored packet 7798 at time 2504
Additional hops: 438
Set signal latency stall time: 12
Reenqueueing errored packet 8376 at time 2672
Additional hops: 448
Set signal latency stall time: 20
Additional hops: 455
Set signal latency stall time: 14
Reenqueueing errored packet 8550 at time 2752
Additional hops: 459
Set signal latency stall time: 8
Reenqueueing errored packet 8648 at time 2765
Reenqueueing errored packet 8716 at time 2772
Additional hops: 463
Set signal latency stall time: 8
Reenqueueing errored packet 8757 at time 2790
Additional hops: 466
Set signal latency stall time: 6
Reenqueueing errored packet 8896 at time 2828
Additional hops: 469
Set signal latency stall time: 6
Reenqueueing errored packet 9131 at time 2901
Additional hops: 471
Set signal latency stall time: 4
Reenqueueing errored packet 9283 at time 2944
Additional hops: 479
Set signal latency stall time: 16
Reenqueueing errored packet 9562 at time 3060
Additional hops: 484
Set signal latency stall time: 10
Reenqueueing errored packet 9683 at time 3092
Additional hops: 490
Set signal latency stall time: 12
Reenqueueing errored packet 9850 at time 3147
Additional hops: 500
Set signal latency stall time: 20
Reenqueueing errored packet 10415 at time 3357
Additional hops: 504
Set signal latency stall time: 8
Reenqueueing errored packet 10604 at time 3376
Additional hops: 509
Set signal latency stall time: 10
Reenqueueing errored packet 10651 at time 3394
Additional hops: 514
Set signal latency stall time: 10
Reenqueueing errored packet 10812 at time 3442
Additional hops: 520
Set signal latency stall time: 12
Reenqueueing errored packet 11031 at time 3512
Additional hops: 528
Set signal latency stall time: 16
Reenqueueing errored packet 11582 at time 3695
Additional hops: 532
Set signal latency stall time: 8
Additional hops: 539
Set signal latency stall time: 14
Reenqueueing errored packet 11696 at time 3707
Reenqueueing errored packet 11670 at time 3715
Additional hops: 548
Set signal latency stall time: 18
Additional hops: 560
Set signal latency stall time: 24
Reenqueueing errored packet 11781 at time 3760
Reenqueueing errored packet 11763 at time 3769
Additional hops: 563
Set signal latency stall time: 6
Reenqueueing errored packet 12421 at time 3923
Additional hops: 574
Set signal latency stall time: 22
Reenqueueing errored packet 12438 at time 3967
Additional hops: 577
Set signal latency stall time: 6
Additional hops: 587
Set signal latency stall time: 20
Additional hops: 596
Set signal latency stall time: 18
Reenqueueing errored packet 12630 at time 3982
Reenqueueing errored packet 12569 at time 3998
Reenqueueing errored packet 12598 at time 4000
Additional hops: 607
Set signal latency stall time: 22
Reenqueueing errored packet 12700 at time 4042
Additional hops: 615
Set signal latency stall time: 16
Reenqueueing errored packet 13138 at time 4166
Additional hops: 622
Set signal latency stall time: 14
Reenqueueing errored packet 13319 at time 4219
Additional hops: 630
Set signal latency stall time: 16
Reenqueueing errored packet 13377 at time 4245
Additional hops: 639
Set signal latency stall time: 18
Additional hops: 649
Set signal latency stall time: 20
Reenqueueing errored packet 13446 at time 4271
Additional hops: 661
Set signal latency stall time: 24
Reenqueueing errored packet 13467 at time 4282
Reenqueueing errored packet 13491 at time 4305
Additional hops: 666
Set signal latency stall time: 10
Reenqueueing errored packet 13935 at time 4411
Additional hops: 677
Set signal latency stall time: 22
Additional hops: 681
Set signal latency stall time: 8
Reenqueueing errored packet 14074 at time 4487
Reenqueueing errored packet 14198 at time 4492
Additional hops: 687
Set signal latency stall time: 12
Additional hops: 696
Set signal latency stall time: 18
Reenqueueing errored packet 14212 at time 4506
Reenqueueing errored packet 14192 at time 4516
Additional hops: 707
Set signal latency stall time: 22
Additional hops: 715
Set signal latency stall time: 16
Reenqueueing errored packet 14502 at time 4621
Reenqueueing errored packet 14553 at time 4624
Additional hops: 724
Set signal latency stall time: 18
Additional hops: 733
Set signal latency stall time: 18
Reenqueueing errored packet 15147 at time 4823
Reenqueueing errored packet 15199 at time 4838
Additional hops: 741
Set signal latency stall time: 16
Additional hops: 751
Set signal latency stall time: 20
Reenqueueing errored packet 15399 at time 4902
Reenqueueing errored packet 15386 at time 4907
Additional hops: 761
Set signal latency stall time: 20
Additional hops: 767
Set signal latency stall time: 12
Reenqueueing errored packet 15615 at time 4983
Reenqueueing errored packet 15696 at time 4986
Additional hops: 768
Set signal latency stall time: 2
Reenqueueing errored packet 15870 at time 5017
Additional hops: 773
Set signal latency stall time: 10
Reenqueueing errored packet 15852 at time 5032
Additional hops: 788
Set signal latency stall time: 30
Reenqueueing errored packet 15848 at time 5082
Additional hops: 793
Set signal latency stall time: 10
Reenqueueing errored packet 16091 at time 5105
Additional hops: 803
Set signal latency stall time: 20
Reenqueueing errored packet 16104 at time 5135
Additional hops: 813
Set signal latency stall time: 20
Reenqueueing errored packet 16322 at time 5203
Additional hops: 819
Set signal latency stall time: 12
Reenqueueing errored packet 16486 at time 5231
Additional hops: 826
Set signal latency stall time: 14
Additional hops: 831
Set signal latency stall time: 10
Reenqueueing errored packet 16545 at time 5245
Reenqueueing errored packet 16524 at time 5248
Additional hops: 835
Set signal latency stall time: 8
Reenqueueing errored packet 16817 at time 5326
Additional hops: 842
Set signal latency stall time: 14
Reenqueueing errored packet 16821 at time 5343
Additional hops: 849
Set signal latency stall time: 14
Reenqueueing errored packet 17007 at time 5405
Additional hops: 858
Set signal latency stall time: 18
Reenqueueing errored packet 17061 at time 5431
Additional hops: 871
Set signal latency stall time: 26
Reenqueueing errored packet 17094 at time 5461
Additional hops: 883
Set signal latency stall time: 24
Reenqueueing errored packet 17210 at time 5497
Additional hops: 890
Set signal latency stall time: 14
Reenqueueing errored packet 17544 at time 5585
Additional hops: 899
Set signal latency stall time: 18
Additional hops: 910
Set signal latency stall time: 22
Reenqueueing errored packet 17690 at time 5636
Reenqueueing errored packet 17699 at time 5649
Additional hops: 917
Set signal latency stall time: 14
Additional hops: 922
Set signal latency stall time: 10
Additional hops: 929
Set signal latency stall time: 14
Additional hops: 938
Set signal latency stall time: 18
Additional hops: 948
Set signal latency stall time: 20
Reenqueueing errored packet 17871 at time 5674
Reenqueueing errored packet 17843 at time 5677
Reenqueueing errored packet 17853 at time 5679
Reenqueueing errored packet 17852 at time 5689
Reenqueueing errored packet 17841 at time 5692
Additional hops: 954
Set signal latency stall time: 12
Reenqueueing errored packet 18174 at time 5767
Additional hops: 962
Set signal latency stall time: 16
Reenqueueing errored packet 18214 at time 5793
Additional hops: 973
Set signal latency stall time: 22
Reenqueueing errored packet 18381 at time 5857
Additional hops: 987
Set signal latency stall time: 28
Additional hops: 988
Set signal latency stall time: 2
Reenqueueing errored packet 18675 at time 5892
Reenqueueing errored packet 18460 at time 5895
Additional hops: 993
Set signal latency stall time: 10
Reenqueueing errored packet 18996 at time 6010
Additional hops: 998
Set signal latency stall time: 10
Reenqueueing errored packet 19427 at time 6143
Additional hops: 1006
Set signal latency stall time: 16
Reenqueueing errored packet 19725 at time 6263
Additional hops: 1016
Set signal latency stall time: 20
Reenqueueing errored packet 20062 at time 6376
Additional hops: 1025
Set signal latency stall time: 18
Additional hops: 1028
Set signal latency stall time: 6
Reenqueueing errored packet 20387 at time 6443
Additional hops: 1030
Set signal latency stall time: 4
Reenqueueing errored packet 20304 at time 6447
Reenqueueing errored packet 20427 at time 6448
Additional hops: 1038
Set signal latency stall time: 16
Additional hops: 1047
Set signal latency stall time: 18
Reenqueueing errored packet 20445 at time 6483
Reenqueueing errored packet 20467 at time 6494
Additional hops: 1059
Set signal latency stall time: 24
Reenqueueing errored packet 20675 at time 6572
Additional hops: 1063
Set signal latency stall time: 8
Additional hops: 1074
Set signal latency stall time: 22
Reenqueueing errored packet 21494 at time 6791
Reenqueueing errored packet 21434 at time 6809
Additional hops: 1081
Set signal latency stall time: 14
Reenqueueing errored packet 21683 at time 6863
Additional hops: 1095
Set signal latency stall time: 28
Reenqueueing errored packet 21683 at time 6915
Additional hops: 1104
Set signal latency stall time: 18
Reenqueueing errored packet 22071 at time 6994
Additional hops: 1112
Set signal latency stall time: 16
Reenqueueing errored packet 22210 at time 7034
Additional hops: 1121
Set signal latency stall time: 18
Additional hops: 1133
Set signal latency stall time: 24
Reenqueueing errored packet 22445 at time 7107
Reenqueueing errored packet 22467 at time 7129
Additional hops: 1139
Set signal latency stall time: 12
Additional hops: 1145
Set signal latency stall time: 12
Reenqueueing errored packet 22772 at time 7188
Reenqueueing errored packet 22799 at time 7196
Additional hops: 1156
Set signal latency stall time: 22
Additional hops: 1163
Set signal latency stall time: 14
Reenqueueing errored packet 22882 at time 7233
Reenqueueing errored packet 22833 at time 7236
Additional hops: 1171
Set signal latency stall time: 16
Reenqueueing errored packet 23037 at time 7288
Additional hops: 1176
Set signal latency stall time: 10
Additional hops: 1186
Set signal latency stall time: 20
Reenqueueing errored packet 23160 at time 7318
Additional hops: 1195
Set signal latency stall time: 18
Reenqueueing errored packet 23146 at time 7337
Reenqueueing errored packet 23206 at time 7353
Additional hops: 1208
Set signal latency stall time: 26
Additional hops: 1216
Set signal latency stall time: 16
Reenqueueing errored packet 23313 at time 7381
Reenqueueing errored packet 23237 at time 7382
Additional hops: 1221
Set signal latency stall time: 10
Reenqueueing errored packet 23403 at time 7395
Additional hops: 1228
Set signal latency stall time: 14
Reenqueueing errored packet 23434 at time 7417
Additional hops: 1231
Set signal latency stall time: 6
Reenqueueing errored packet 23617 at time 7452
Additional hops: 1237
Set signal latency stall time: 12
Additional hops: 1243
Set signal latency stall time: 12
Reenqueueing errored packet 23738 at time 7505
Reenqueueing errored packet 23775 at time 7517
Additional hops: 1252
Set signal latency stall time: 18
Reenqueueing errored packet 23887 at time 7568
Additional hops: 1263
Set signal latency stall time: 22
Additional hops: 1268
Set signal latency stall time: 10
Reenqueueing errored packet 24106 at time 7622
Reenqueueing errored packet 24061 at time 7634
Additional hops: 1282
Set signal latency stall time: 28
Reenqueueing errored packet 24378 at time 7746
Additional hops: 1286
Set signal latency stall time: 8
Reenqueueing errored packet 24590 at time 7764
Additional hops: 1289
Set signal latency stall time: 6
Reenqueueing errored packet 24668 at time 7781
Additional hops: 1297
Set signal latency stall time: 16
Reenqueueing errored packet 24782 at time 7842
Additional hops: 1306
Set signal latency stall time: 18
Additional hops: 1311
Set signal latency stall time: 10
Reenqueueing errored packet 25008 at time 7890
Reenqueueing errored packet 24945 at time 7895
Additional hops: 1318
Set signal latency stall time: 14
Reenqueueing errored packet 25134 at time 7941
Additional hops: 1326
Set signal latency stall time: 16
Additional hops: 1333
Set signal latency stall time: 14
Reenqueueing errored packet 25180 at time 7961
Additional hops: 1338
Set signal latency stall time: 10
Reenqueueing errored packet 25287 at time 7975
Reenqueueing errored packet 25252 at time 7975
Additional hops: 1343
Set signal latency stall time: 10
Reenqueueing errored packet 25629 at time 8084
Additional hops: 1353
Set signal latency stall time: 20
Reenqueueing errored packet 25713 at time 8134
Additional hops: 1360
Set signal latency stall time: 14
Additional hops: 1364
Set signal latency stall time: 8
Reenqueueing errored packet 26005 at time 8190
Reenqueueing errored packet 25962 at time 8191
Additional hops: 1373
Set signal latency stall time: 18
Reenqueueing errored packet 26011 at time 8216
Additional hops: 1387
Set signal latency stall time: 28
Reenqueueing errored packet 26020 at time 8246
Additional hops: 1388
Set signal latency stall time: 2
Reenqueueing errored packet 26307 at time 8272
Additional hops: 1398
Set signal latency stall time: 20
Additional hops: 1407
Set signal latency stall time: 18
Reenqueueing errored packet 26253 at time 8298
Reenqueueing errored packet 26264 at time 8299
Additional hops: 1414
Set signal latency stall time: 14
Reenqueueing errored packet 26529 at time 8368
Additional hops: 1421
Set signal latency stall time: 14
Reenqueueing errored packet 26660 at time 8406
Additional hops: 1427
Set signal latency stall time: 12
Additional hops: 1433
Set signal latency stall time: 12
Reenqueueing errored packet 26798 at time 8438
Reenqueueing errored packet 26828 at time 8446
Additional hops: 1441
Set signal latency stall time: 16
Reenqueueing errored packet 26892 at time 8476
Additional hops: 1448
Set signal latency stall time: 14
Reenqueueing errored packet 27022 at time 8509
Additional hops: 1451
Set signal latency stall time: 6
Reenqueueing errored packet 27129 at time 8516
Additional hops: 1456
Set signal latency stall time: 10
Reenqueueing errored packet 27134 at time 8528
Additional hops: 1462
Set signal latency stall time: 12
Reenqueueing errored packet 27195 at time 8552
Additional hops: 1471
Set signal latency stall time: 18
Reenqueueing errored packet 27377 at time 8628
Additional hops: 1476
Set signal latency stall time: 10
Reenqueueing errored packet 27482 at time 8641
Additional hops: 1477
Set signal latency stall time: 2
Reenqueueing errored packet 27665 at time 8678
Additional hops: 1484
Set signal latency stall time: 14
Reenqueueing errored packet 27780 at time 8742
Additional hops: 1490
Set signal latency stall time: 12
Additional hops: 1495
Set signal latency stall time: 10
Reenqueueing errored packet 28000 at time 8801
Reenqueueing errored packet 28025 at time 8802
Additional hops: 1497
Set signal latency stall time: 4
Reenqueueing errored packet 28152 at time 8822
Additional hops: 1507
Set signal latency stall time: 20
Reenqueueing errored packet 28554 at time 8995
Additional hops: 1518
Set signal latency stall time: 22
Reenqueueing errored packet 28659 at time 9032
Additional hops: 1523
Set signal latency stall time: 10
Reenqueueing errored packet 28851 at time 9066
Additional hops: 1527
Set signal latency stall time: 8
Reenqueueing errored packet 28918 at time 9086
Additional hops: 1536
Set signal latency stall time: 18
Additional hops: 1542
Set signal latency stall time: 12
Additional hops: 1549
Set signal latency stall time: 14
Reenqueueing errored packet 28986 at time 9116
Reenqueueing errored packet 28936 at time 9117
Reenqueueing errored packet 28999 at time 9124
Additional hops: 1563
Set signal latency stall time: 28
Additional hops: 1567
Set signal latency stall time: 8
Reenqueueing errored packet 29109 at time 9146
Additional hops: 1572
Set signal latency stall time: 10
Reenqueueing errored packet 29007 at time 9162
Reenqueueing errored packet 29167 at time 9168
Additional hops: 1579
Set signal latency stall time: 14
Reenqueueing errored packet 29322 at time 9222
Additional hops: 1586
Set signal latency stall time: 14
Reenqueueing errored packet 29483 at time 9274
Additional hops: 1593
Set signal latency stall time: 14
Additional hops: 1603
Set signal latency stall time: 20
Reenqueueing errored packet 29582 at time 9307
Reenqueueing errored packet 29599 at time 9326
Additional hops: 1607
Set signal latency stall time: 8
Reenqueueing errored packet 29824 at time 9373
Additional hops: 1612
Set signal latency stall time: 10
Reenqueueing errored packet 30047 at time 9447
Additional hops: 1614
Set signal latency stall time: 4
Reenqueueing errored packet 30296 at time 9494
Additional hops: 1619
Set signal latency stall time: 10
Reenqueueing errored packet 30311 at time 9512
Additional hops: 1622
Set signal latency stall time: 6
Additional hops: 1626
Set signal latency stall time: 8
Reenqueueing errored packet 30389 at time 9527
Reenqueueing errored packet 30396 at time 9533
Additional hops: 1633
Set signal latency stall time: 14
Additional hops: 1640
Set signal latency stall time: 14
Reenqueueing errored packet 30501 at time 9580
Additional hops: 1644
Set signal latency stall time: 8
Reenqueueing errored packet 30507 at time 9581
Additional hops: 1652
Set signal latency stall time: 16
Reenqueueing errored packet 30585 at time 9589
Additional hops: 1662
Set signal latency stall time: 20
Reenqueueing errored packet 30567 at time 9601
Reenqueueing errored packet 30559 at time 9610
Additional hops: 1668
Set signal latency stall time: 12
Reenqueueing errored packet 30669 at time 9631
Additional hops: 1677
Set signal latency stall time: 18
Additional hops: 1685
Set signal latency stall time: 16
Additional hops: 1694
Set signal latency stall time: 18
Reenqueueing errored packet 30706 at time 9656
Additional hops: 1701
Set signal latency stall time: 14
Reenqueueing errored packet 30761 at time 9671
Reenqueueing errored packet 30748 at time 9673
Reenqueueing errored packet 30821 at time 9684
Additional hops: 1709
Set signal latency stall time: 16
Additional hops: 1717
Set signal latency stall time: 16
Reenqueueing errored packet 30995 at time 9745
Reenqueueing errored packet 31042 at time 9761
Additional hops: 1719
Set signal latency stall time: 4
Reenqueueing errored packet 31254 at time 9798
Additional hops: 1728
Set signal latency stall time: 18
Reenqueueing errored packet 31253 at time 9832
Additional hops: 1731
Set signal latency stall time: 6
Reenqueueing errored packet 31591 at time 9911
Additional hops: 1738
Set signal latency stall time: 14
Additional hops: 1748
Set signal latency stall time: 20
Reenqueueing errored packet 31587 at time 9929
Additional hops: 1756
Set signal latency stall time: 16
Reenqueueing errored packet 31579 at time 9943
Reenqueueing errored packet 31661 at time 9954
Additional hops: 1760
Set signal latency stall time: 8
Reenqueueing errored packet 31822 at time 9985
Additional hops: 1764
Set signal latency stall time: 8
Class 0:
Packet latency average = 21.1316
	minimum = 5
	maximum = 143
Network latency average = 20.8337
	minimum = 5
	maximum = 48
Slowest packet = 205
Flit latency average = 20.8337
	minimum = 5
	maximum = 48
Slowest flit = 3136
Fragmentation average = 0
	minimum = 0
	maximum = 0
Injected packet rate average = 0.0502937
	minimum = 0.0455 (at node 6)
	maximum = 0.0547 (at node 55)
Accepted packet rate average = 0.0501938
	minimum = 0.0457 (at node 18)
	maximum = 0.0546 (at node 8)
Injected flit rate average = 0.0502937
	minimum = 0.0455 (at node 6)
	maximum = 0.0547 (at node 55)
Accepted flit rate average= 0.0501938
	minimum = 0.0457 (at node 18)
	maximum = 0.0546 (at node 8)
Injected packet length average = 1
Accepted packet length average = 1
Total in-flight flits = 65 (0 measured)
latency change    = 1
throughput change = 1
Reenqueueing errored packet 31893 at time 10005
Additional hops: 1776
Set signal latency stall time: 24
Reenqueueing errored packet 31928 at time 10056
Additional hops: 1783
Set signal latency stall time: 14
Reenqueueing errored packet 32650 at time 10254
Additional hops: 1788
Set signal latency stall time: 10
Reenqueueing errored packet 32729 at time 10275
Additional hops: 1795
Set signal latency stall time: 14
Reenqueueing errored packet 32882 at time 10334
Additional hops: 1803
Set signal latency stall time: 16
Reenqueueing errored packet 33009 at time 10380
Additional hops: 1811
Set signal latency stall time: 16
Reenqueueing errored packet 33055 at time 10398
Additional hops: 1816
Set signal latency stall time: 10
Reenqueueing errored packet 33202 at time 10424
Additional hops: 1820
Set signal latency stall time: 8
Reenqueueing errored packet 33262 at time 10436
Additional hops: 1826
Set signal latency stall time: 12
Reenqueueing errored packet 33916 at time 10650
Additional hops: 1833
Set signal latency stall time: 14
Reenqueueing errored packet 34082 at time 10702
Additional hops: 1842
Set signal latency stall time: 18
Additional hops: 1849
Set signal latency stall time: 14
Reenqueueing errored packet 34147 at time 10732
Reenqueueing errored packet 34179 at time 10733
Additional hops: 1856
Set signal latency stall time: 14
Reenqueueing errored packet 34318 at time 10778
Additional hops: 1860
Set signal latency stall time: 8
Reenqueueing errored packet 34386 at time 10788
Additional hops: 1870
Set signal latency stall time: 20
Reenqueueing errored packet 34448 at time 10835
Additional hops: 1875
Set signal latency stall time: 10
Reenqueueing errored packet 34902 at time 10958
Additional hops: 1883
Set signal latency stall time: 16
Reenqueueing errored packet 34966 at time 10992
Additional hops: 1891
Set signal latency stall time: 16
Reenqueueing errored packet 35095 at time 11032
Additional hops: 1895
Set signal latency stall time: 8
Reenqueueing errored packet 35256 at time 11062
Additional hops: 1900
Set signal latency stall time: 10
Reenqueueing errored packet 35274 at time 11073
Additional hops: 1904
Set signal latency stall time: 8
Reenqueueing errored packet 35313 at time 11082
Additional hops: 1913
Set signal latency stall time: 18
Reenqueueing errored packet 35385 at time 11130
Additional hops: 1922
Set signal latency stall time: 18
Reenqueueing errored packet 35477 at time 11155
Additional hops: 1930
Set signal latency stall time: 16
Reenqueueing errored packet 35552 at time 11174
Additional hops: 1935
Set signal latency stall time: 10
Additional hops: 1948
Set signal latency stall time: 26
Reenqueueing errored packet 35643 at time 11189
Reenqueueing errored packet 35575 at time 11209
Additional hops: 1957
Set signal latency stall time: 18
Reenqueueing errored packet 35837 at time 11268
Additional hops: 1962
Set signal latency stall time: 10
Reenqueueing errored packet 35940 at time 11280
Additional hops: 1976
Set signal latency stall time: 28
Additional hops: 1983
Set signal latency stall time: 14
Reenqueueing errored packet 36247 at time 11390
Reenqueueing errored packet 36154 at time 11396
Additional hops: 1995
Set signal latency stall time: 24
Additional hops: 2004
Set signal latency stall time: 18
Reenqueueing errored packet 36428 at time 11449
Additional hops: 2008
Set signal latency stall time: 8
Reenqueueing errored packet 36381 at time 11452
Reenqueueing errored packet 36546 at time 11459
Additional hops: 2013
Set signal latency stall time: 10
Additional hops: 2015
Set signal latency stall time: 4
Reenqueueing errored packet 36614 at time 11467
Reenqueueing errored packet 36581 at time 11473
Additional hops: 2021
Set signal latency stall time: 12
Reenqueueing errored packet 36779 at time 11538
Additional hops: 2030
Set signal latency stall time: 18
Reenqueueing errored packet 37188 at time 11678
Additional hops: 2032
Set signal latency stall time: 4
Reenqueueing errored packet 37323 at time 11686
Additional hops: 2040
Set signal latency stall time: 16
Reenqueueing errored packet 37368 at time 11728
Additional hops: 2051
Set signal latency stall time: 22
Reenqueueing errored packet 37506 at time 11783
Additional hops: 2065
Set signal latency stall time: 28
Additional hops: 2071
Set signal latency stall time: 12
Reenqueueing errored packet 37725 at time 11829
Reenqueueing errored packet 37629 at time 11839
Additional hops: 2073
Set signal latency stall time: 4
Reenqueueing errored packet 38077 at time 11929
Additional hops: 2085
Set signal latency stall time: 24
Reenqueueing errored packet 38284 at time 12045
Additional hops: 2095
Set signal latency stall time: 20
Reenqueueing errored packet 38421 at time 12083
Additional hops: 2099
Set signal latency stall time: 8
Reenqueueing errored packet 38555 at time 12092
Additional hops: 2111
Set signal latency stall time: 24
Reenqueueing errored packet 38498 at time 12117
Additional hops: 2121
Set signal latency stall time: 20
Additional hops: 2130
Set signal latency stall time: 18
Reenqueueing errored packet 38619 at time 12141
Reenqueueing errored packet 38684 at time 12158
Additional hops: 2137
Set signal latency stall time: 14
Additional hops: 2142
Set signal latency stall time: 10
Reenqueueing errored packet 38866 at time 12203
Reenqueueing errored packet 38892 at time 12204
Additional hops: 2148
Set signal latency stall time: 12
Reenqueueing errored packet 38941 at time 12227
Additional hops: 2155
Set signal latency stall time: 14
Reenqueueing errored packet 39079 at time 12274
Additional hops: 2163
Set signal latency stall time: 16
Reenqueueing errored packet 39249 at time 12329
Additional hops: 2169
Set signal latency stall time: 12
Additional hops: 2174
Set signal latency stall time: 10
Additional hops: 2177
Set signal latency stall time: 6
Reenqueueing errored packet 39374 at time 12351
Reenqueueing errored packet 39414 at time 12352
Reenqueueing errored packet 39367 at time 12353
Additional hops: 2188
Set signal latency stall time: 22
Reenqueueing errored packet 39634 at time 12454
Additional hops: 2196
Set signal latency stall time: 16
Additional hops: 2202
Set signal latency stall time: 12
Reenqueueing errored packet 39834 at time 12505
Reenqueueing errored packet 39908 at time 12517
Additional hops: 2213
Set signal latency stall time: 22
Additional hops: 2224
Set signal latency stall time: 22
Reenqueueing errored packet 39965 at time 12559
Reenqueueing errored packet 40020 at time 12576
Additional hops: 2229
Set signal latency stall time: 10
Additional hops: 2237
Set signal latency stall time: 16
Additional hops: 2249
Set signal latency stall time: 24
Reenqueueing errored packet 40255 at time 12619
Additional hops: 2255
Set signal latency stall time: 12
Reenqueueing errored packet 40233 at time 12628
Reenqueueing errored packet 40182 at time 12636
Reenqueueing errored packet 40299 at time 12638
Additional hops: 2261
Set signal latency stall time: 12
Reenqueueing errored packet 40343 at time 12651
Additional hops: 2266
Set signal latency stall time: 10
Reenqueueing errored packet 40695 at time 12755
Additional hops: 2276
Set signal latency stall time: 20
Reenqueueing errored packet 40783 at time 12806
Additional hops: 2282
Set signal latency stall time: 12
Reenqueueing errored packet 40965 at time 12842
Additional hops: 2291
Set signal latency stall time: 18
Additional hops: 2300
Set signal latency stall time: 18
Reenqueueing errored packet 41159 at time 12917
Reenqueueing errored packet 41174 at time 12921
Additional hops: 2306
Set signal latency stall time: 12
Additional hops: 2308
Set signal latency stall time: 4
Reenqueueing errored packet 41577 at time 13013
Reenqueueing errored packet 41525 at time 13018
Additional hops: 2314
Set signal latency stall time: 12
Additional hops: 2324
Set signal latency stall time: 20
Reenqueueing errored packet 41646 at time 13053
Additional hops: 2334
Set signal latency stall time: 20
Reenqueueing errored packet 41617 at time 13063
Reenqueueing errored packet 41656 at time 13076
Additional hops: 2337
Set signal latency stall time: 6
Reenqueueing errored packet 41951 at time 13130
Additional hops: 2346
Set signal latency stall time: 18
Additional hops: 2351
Set signal latency stall time: 10
Reenqueueing errored packet 42182 at time 13235
Reenqueueing errored packet 42257 at time 13238
Additional hops: 2361
Set signal latency stall time: 20
Additional hops: 2371
Set signal latency stall time: 20
Reenqueueing errored packet 42583 at time 13369
Additional hops: 2374
Set signal latency stall time: 6
Reenqueueing errored packet 42636 at time 13384
Reenqueueing errored packet 42755 at time 13386
Additional hops: 2381
Set signal latency stall time: 14
Reenqueueing errored packet 42776 at time 13415
Additional hops: 2388
Set signal latency stall time: 14
Reenqueueing errored packet 42936 at time 13466
Additional hops: 2396
Set signal latency stall time: 16
Reenqueueing errored packet 43080 at time 13515
Additional hops: 2403
Set signal latency stall time: 14
Reenqueueing errored packet 43259 at time 13565
Additional hops: 2410
Set signal latency stall time: 14
Reenqueueing errored packet 43416 at time 13612
Additional hops: 2422
Set signal latency stall time: 24
Reenqueueing errored packet 43465 at time 13654
Additional hops: 2429
Set signal latency stall time: 14
Reenqueueing errored packet 43699 at time 13705
Additional hops: 2435
Set signal latency stall time: 12
Reenqueueing errored packet 43854 at time 13747
Additional hops: 2444
Set signal latency stall time: 18
Reenqueueing errored packet 43997 at time 13804
Additional hops: 2456
Set signal latency stall time: 24
Additional hops: 2462
Set signal latency stall time: 12
Reenqueueing errored packet 44487 at time 13939
Reenqueueing errored packet 44399 at time 13942
Additional hops: 2468
Set signal latency stall time: 12
Additional hops: 2477
Set signal latency stall time: 18
Additional hops: 2483
Set signal latency stall time: 12
Reenqueueing errored packet 44562 at time 13963
Reenqueueing errored packet 44584 at time 13968
Reenqueueing errored packet 44534 at time 13971
Additional hops: 2491
Set signal latency stall time: 16
Additional hops: 2502
Set signal latency stall time: 22
Reenqueueing errored packet 45058 at time 14139
Reenqueueing errored packet 45079 at time 14161
Additional hops: 2512
Set signal latency stall time: 20
Reenqueueing errored packet 45169 at time 14183
Additional hops: 2519
Set signal latency stall time: 14
Additional hops: 2531
Set signal latency stall time: 24
Reenqueueing errored packet 45572 at time 14291
Additional hops: 2539
Set signal latency stall time: 16
Reenqueueing errored packet 45612 at time 14310
Reenqueueing errored packet 45554 at time 14312
Additional hops: 2544
Set signal latency stall time: 10
Additional hops: 2548
Set signal latency stall time: 8
Reenqueueing errored packet 45809 at time 14353
Reenqueueing errored packet 45834 at time 14354
Additional hops: 2550
Set signal latency stall time: 4
Reenqueueing errored packet 45973 at time 14383
Additional hops: 2559
Set signal latency stall time: 18
Reenqueueing errored packet 45923 at time 14407
Additional hops: 2566
Set signal latency stall time: 14
Additional hops: 2571
Set signal latency stall time: 10
Reenqueueing errored packet 46210 at time 14477
Reenqueueing errored packet 46251 at time 14481
Additional hops: 2579
Set signal latency stall time: 16
Additional hops: 2585
Set signal latency stall time: 12
Reenqueueing errored packet 46279 at time 14505
Additional hops: 2595
Set signal latency stall time: 20
Reenqueueing errored packet 46314 at time 14508
Additional hops: 2601
Set signal latency stall time: 12
Reenqueueing errored packet 46369 at time 14524
Reenqueueing errored packet 46321 at time 14528
Additional hops: 2609
Set signal latency stall time: 16
Additional hops: 2613
Set signal latency stall time: 8
Reenqueueing errored packet 46487 at time 14569
Reenqueueing errored packet 46578 at time 14577
Additional hops: 2621
Set signal latency stall time: 16
Reenqueueing errored packet 46577 at time 14597
Additional hops: 2632
Set signal latency stall time: 22
Reenqueueing errored packet 46701 at time 14655
Additional hops: 2639
Set signal latency stall time: 14
Additional hops: 2647
Set signal latency stall time: 16
Reenqueueing errored packet 46823 at time 14671
Additional hops: 2657
Set signal latency stall time: 20
Reenqueueing errored packet 46836 at time 14681
Reenqueueing errored packet 46864 at time 14699
Additional hops: 2667
Set signal latency stall time: 20
Reenqueueing errored packet 47009 at time 14753
Additional hops: 2676
Set signal latency stall time: 18
Additional hops: 2686
Set signal latency stall time: 20
Additional hops: 2694
Set signal latency stall time: 16
Reenqueueing errored packet 47103 at time 14776
Reenqueueing errored packet 47100 at time 14781
Additional hops: 2704
Set signal latency stall time: 20
Reenqueueing errored packet 47152 at time 14789
Reenqueueing errored packet 47177 at time 14809
Additional hops: 2711
Set signal latency stall time: 14
Reenqueueing errored packet 47497 at time 14895
Additional hops: 2719
Set signal latency stall time: 16
Reenqueueing errored packet 47720 at time 14975
Additional hops: 2729
Set signal latency stall time: 20
Reenqueueing errored packet 48347 at time 15173
Additional hops: 2737
Set signal latency stall time: 16
Reenqueueing errored packet 48516 at time 15211
Additional hops: 2744
Set signal latency stall time: 14
Reenqueueing errored packet 48612 at time 15236
Additional hops: 2752
Set signal latency stall time: 16
Reenqueueing errored packet 48928 at time 15333
Additional hops: 2756
Set signal latency stall time: 8
Additional hops: 2759
Set signal latency stall time: 6
Reenqueueing errored packet 49225 at time 15404
Reenqueueing errored packet 49242 at time 15405
Additional hops: 2765
Set signal latency stall time: 12
Reenqueueing errored packet 49366 at time 15459
Additional hops: 2776
Set signal latency stall time: 22
Additional hops: 2784
Set signal latency stall time: 16
Reenqueueing errored packet 49525 at time 15516
Reenqueueing errored packet 49487 at time 15520
Additional hops: 2788
Set signal latency stall time: 8
Reenqueueing errored packet 49792 at time 15577
Additional hops: 2793
Set signal latency stall time: 10
Additional hops: 2799
Set signal latency stall time: 12
Reenqueueing errored packet 49900 at time 15610
Additional hops: 2804
Set signal latency stall time: 10
Reenqueueing errored packet 49906 at time 15617
Reenqueueing errored packet 49971 at time 15627
Additional hops: 2808
Set signal latency stall time: 8
Additional hops: 2813
Set signal latency stall time: 10
Reenqueueing errored packet 50109 at time 15662
Reenqueueing errored packet 50102 at time 15665
Additional hops: 2822
Set signal latency stall time: 18
Reenqueueing errored packet 50352 at time 15764
Additional hops: 2829
Set signal latency stall time: 14
Additional hops: 2836
Set signal latency stall time: 14
Additional hops: 2844
Set signal latency stall time: 16
Reenqueueing errored packet 50499 at time 15801
Reenqueueing errored packet 50525 at time 15809
Reenqueueing errored packet 50521 at time 15813
Additional hops: 2851
Set signal latency stall time: 14
Reenqueueing errored packet 51021 at time 15954
Additional hops: 2857
Set signal latency stall time: 12
Additional hops: 2860
Set signal latency stall time: 6
Reenqueueing errored packet 51161 at time 15990
Reenqueueing errored packet 51234 at time 15995
Additional hops: 2867
Set signal latency stall time: 14
Reenqueueing errored packet 51486 at time 16095
Additional hops: 2875
Set signal latency stall time: 16
Additional hops: 2882
Set signal latency stall time: 14
Additional hops: 2886
Set signal latency stall time: 8
Reenqueueing errored packet 51692 at time 16146
Reenqueueing errored packet 51638 at time 16149
Reenqueueing errored packet 51659 at time 16150
Additional hops: 2893
Set signal latency stall time: 14
Reenqueueing errored packet 51796 at time 16191
Additional hops: 2903
Set signal latency stall time: 20
Additional hops: 2912
Set signal latency stall time: 18
Additional hops: 2922
Set signal latency stall time: 20
Reenqueueing errored packet 51857 at time 16225
Reenqueueing errored packet 51897 at time 16234
Reenqueueing errored packet 51914 at time 16244
Additional hops: 2927
Set signal latency stall time: 10
Reenqueueing errored packet 52030 at time 16258
Additional hops: 2933
Set signal latency stall time: 12
Reenqueueing errored packet 52268 at time 16336
Additional hops: 2939
Set signal latency stall time: 12
Reenqueueing errored packet 52361 at time 16366
Additional hops: 2947
Set signal latency stall time: 16
Reenqueueing errored packet 52435 at time 16402
Additional hops: 2954
Set signal latency stall time: 14
Reenqueueing errored packet 52565 at time 16437
Additional hops: 2961
Set signal latency stall time: 14
Additional hops: 2968
Set signal latency stall time: 14
Additional hops: 2970
Set signal latency stall time: 4
Reenqueueing errored packet 52710 at time 16463
Reenqueueing errored packet 52643 at time 16464
Reenqueueing errored packet 52663 at time 16469
Additional hops: 2977
Set signal latency stall time: 14
Reenqueueing errored packet 53049 at time 16592
Additional hops: 2984
Set signal latency stall time: 14
Reenqueueing errored packet 53283 at time 16678
Additional hops: 2991
Set signal latency stall time: 14
Reenqueueing errored packet 53591 at time 16780
Additional hops: 3003
Set signal latency stall time: 24
Reenqueueing errored packet 53821 at time 16877
Additional hops: 3010
Set signal latency stall time: 14
Reenqueueing errored packet 54087 at time 16936
Additional hops: 3014
Set signal latency stall time: 8
Additional hops: 3018
Set signal latency stall time: 8
Reenqueueing errored packet 54304 at time 16983
Reenqueueing errored packet 54311 at time 16986
Additional hops: 3025
Set signal latency stall time: 14
Reenqueueing errored packet 54388 at time 17023
Additional hops: 3032
Set signal latency stall time: 14
Reenqueueing errored packet 54650 at time 17097
Additional hops: 3043
Set signal latency stall time: 22
Additional hops: 3050
Set signal latency stall time: 14
Reenqueueing errored packet 55117 at time 17264
Reenqueueing errored packet 55201 at time 17275
Additional hops: 3058
Set signal latency stall time: 16
Reenqueueing errored packet 55265 at time 17302
Additional hops: 3069
Set signal latency stall time: 22
Additional hops: 3075
Set signal latency stall time: 12
Reenqueueing errored packet 55448 at time 17347
Additional hops: 3082
Set signal latency stall time: 14
Reenqueueing errored packet 55376 at time 17351
Reenqueueing errored packet 55498 at time 17365
Additional hops: 3091
Set signal latency stall time: 18
Additional hops: 3095
Set signal latency stall time: 8
Reenqueueing errored packet 55897 at time 17480
Reenqueueing errored packet 55841 at time 17483
Additional hops: 3102
Set signal latency stall time: 14
Additional hops: 3109
Set signal latency stall time: 14
Reenqueueing errored packet 55911 at time 17499
Reenqueueing errored packet 55925 at time 17504
Additional hops: 3115
Set signal latency stall time: 12
Additional hops: 3123
Set signal latency stall time: 16
Reenqueueing errored packet 56264 at time 17612
Additional hops: 3129
Set signal latency stall time: 12
Additional hops: 3132
Set signal latency stall time: 6
Reenqueueing errored packet 56257 at time 17617
Reenqueueing errored packet 56349 at time 17623
Reenqueueing errored packet 56318 at time 17628
Additional hops: 3135
Set signal latency stall time: 6
Reenqueueing errored packet 57296 at time 17919
Additional hops: 3140
Set signal latency stall time: 10
Reenqueueing errored packet 57388 at time 17960
Additional hops: 3148
Set signal latency stall time: 16
Reenqueueing errored packet 57467 at time 17998
Additional hops: 3159
Set signal latency stall time: 22
Reenqueueing errored packet 57518 at time 18028
Additional hops: 3165
Set signal latency stall time: 12
Reenqueueing errored packet 57633 at time 18042
Additional hops: 3169
Set signal latency stall time: 8
Additional hops: 3180
Set signal latency stall time: 22
Reenqueueing errored packet 57706 at time 18054
Reenqueueing errored packet 57655 at time 18072
Additional hops: 3191
Set signal latency stall time: 22
Reenqueueing errored packet 57864 at time 18142
Additional hops: 3192
Set signal latency stall time: 2
Reenqueueing errored packet 58656 at time 18342
Additional hops: 3197
Set signal latency stall time: 10
Reenqueueing errored packet 58831 at time 18418
Additional hops: 3205
Set signal latency stall time: 16
Reenqueueing errored packet 58992 at time 18478
Additional hops: 3213
Set signal latency stall time: 16
Reenqueueing errored packet 59061 at time 18498
Additional hops: 3219
Set signal latency stall time: 12
Reenqueueing errored packet 59254 at time 18551
Additional hops: 3232
Set signal latency stall time: 26
Reenqueueing errored packet 59230 at time 18580
Additional hops: 3242
Set signal latency stall time: 20
Reenqueueing errored packet 59558 at time 18665
Additional hops: 3252
Set signal latency stall time: 20
Reenqueueing errored packet 59899 at time 18766
Additional hops: 3258
Set signal latency stall time: 12
Reenqueueing errored packet 60093 at time 18802
Additional hops: 3261
Set signal latency stall time: 6
Additional hops: 3272
Set signal latency stall time: 22
Reenqueueing errored packet 60208 at time 18820
Reenqueueing errored packet 60128 at time 18837
Additional hops: 3283
Set signal latency stall time: 22
Reenqueueing errored packet 60205 at time 18860
Additional hops: 3290
Set signal latency stall time: 14
Reenqueueing errored packet 60401 at time 18899
Additional hops: 3295
Set signal latency stall time: 10
Reenqueueing errored packet 60521 at time 18928
Additional hops: 3303
Set signal latency stall time: 16
Reenqueueing errored packet 60565 at time 18961
Additional hops: 3308
Set signal latency stall time: 10
Additional hops: 3317
Set signal latency stall time: 18
Additional hops: 3324
Set signal latency stall time: 14
Reenqueueing errored packet 60694 at time 18988
Reenqueueing errored packet 60695 at time 18999
Reenqueueing errored packet 60669 at time 19000
Additional hops: 3327
Set signal latency stall time: 6
Reenqueueing errored packet 61066 at time 19090
Additional hops: 3332
Set signal latency stall time: 10
Reenqueueing errored packet 61208 at time 19146
Additional hops: 3342
Set signal latency stall time: 20
Additional hops: 3347
Set signal latency stall time: 10
Reenqueueing errored packet 61203 at time 19169
Reenqueueing errored packet 61324 at time 19178
Additional hops: 3354
Set signal latency stall time: 14
Reenqueueing errored packet 61432 at time 19220
Additional hops: 3359
Set signal latency stall time: 10
Reenqueueing errored packet 61679 at time 19287
Additional hops: 3364
Set signal latency stall time: 10
Reenqueueing errored packet 61832 at time 19337
Additional hops: 3373
Set signal latency stall time: 18
Reenqueueing errored packet 61866 at time 19369
Additional hops: 3384
Set signal latency stall time: 22
Additional hops: 3389
Set signal latency stall time: 10
Additional hops: 3392
Set signal latency stall time: 6
Reenqueueing errored packet 62148 at time 19417
Reenqueueing errored packet 62116 at time 19418
Reenqueueing errored packet 62029 at time 19422
Additional hops: 3398
Set signal latency stall time: 12
Reenqueueing errored packet 62304 at time 19478
Additional hops: 3407
Set signal latency stall time: 18
Reenqueueing errored packet 62372 at time 19516
Additional hops: 3410
Set signal latency stall time: 6
Additional hops: 3417
Set signal latency stall time: 14
Reenqueueing errored packet 62661 at time 19576
Reenqueueing errored packet 62642 at time 19589
Additional hops: 3420
Set signal latency stall time: 6
Reenqueueing errored packet 62776 at time 19610
Additional hops: 3432
Set signal latency stall time: 24
Additional hops: 3438
Set signal latency stall time: 12
Reenqueueing errored packet 62898 at time 19655
Reenqueueing errored packet 62781 at time 19658
Additional hops: 3445
Set signal latency stall time: 14
Reenqueueing errored packet 62989 at time 19687
Additional hops: 3451
Set signal latency stall time: 12
Reenqueueing errored packet 63354 at time 19806
Additional hops: 3463
Set signal latency stall time: 24
Reenqueueing errored packet 63407 at time 19853
Additional hops: 3471
Set signal latency stall time: 16
Reenqueueing errored packet 63526 at time 19874
Additional hops: 3477
Set signal latency stall time: 12
Additional hops: 3480
Set signal latency stall time: 6
Reenqueueing errored packet 63876 at time 19965
Reenqueueing errored packet 63930 at time 19968
Class 0:
Packet latency average = 21.1507
	minimum = 5
	maximum = 143
Network latency average = 20.8561
	minimum = 5
	maximum = 50
Slowest packet = 205
Flit latency average = 20.8561
	minimum = 5
	maximum = 50
Slowest flit = 45410
Fragmentation average = 0
	minimum = 0
	maximum = 0
Injected packet rate average = 0.0504391
	minimum = 0.04705 (at node 19)
	maximum = 0.0535 (at node 55)
Accepted packet rate average = 0.0503852
	minimum = 0.0469 (at node 36)
	maximum = 0.0534 (at node 51)
Injected flit rate average = 0.0504391
	minimum = 0.04705 (at node 19)
	maximum = 0.0535 (at node 55)
Accepted flit rate average= 0.0503852
	minimum = 0.0469 (at node 36)
	maximum = 0.0534 (at node 51)
Injected packet length average = 1
Accepted packet length average = 1
Total in-flight flits = 69 (0 measured)
latency change    = 0.000901912
throughput change = 0.00379886
Additional hops: 3487
Set signal latency stall time: 14
Reenqueueing errored packet 64034 at time 20022
Additional hops: 3491
Set signal latency stall time: 8
Reenqueueing errored packet 64106 at time 20032
Additional hops: 3496
Set signal latency stall time: 10
Reenqueueing errored packet 64275 at time 20088
Additional hops: 3503
Set signal latency stall time: 14
Additional hops: 3514
Set signal latency stall time: 22
Reenqueueing errored packet 64562 at time 20194
Reenqueueing errored packet 64566 at time 20216
Additional hops: 3524
Set signal latency stall time: 20
Reenqueueing errored packet 64799 at time 20295
Additional hops: 3533
Set signal latency stall time: 18
Additional hops: 3542
Set signal latency stall time: 18
Reenqueueing errored packet 64924 at time 20327
Additional hops: 3547
Set signal latency stall time: 10
Reenqueueing errored packet 64975 at time 20344
Reenqueueing errored packet 65040 at time 20346
Additional hops: 3554
Set signal latency stall time: 14
Reenqueueing errored packet 65300 at time 20432
Additional hops: 3560
Set signal latency stall time: 12
Reenqueueing errored packet 65382 at time 20447
Additional hops: 3567
Set signal latency stall time: 14
Additional hops: 3578
Set signal latency stall time: 22
Reenqueueing errored packet 65510 at time 20491
Additional hops: 3587
Set signal latency stall time: 18
Reenqueueing errored packet 65482 at time 20499
Additional hops: 3599
Set signal latency stall time: 24
Reenqueueing errored packet 65537 at time 20510
Additional hops: 3606
Set signal latency stall time: 14
Reenqueueing errored packet 65549 at time 20530
Reenqueueing errored packet 65642 at time 20533
Additional hops: 3612
Set signal latency stall time: 12
Reenqueueing errored packet 65747 at time 20562
Additional hops: 3614
Set signal latency stall time: 4
Reenqueueing errored packet 65956 at time 20614
Additional hops: 3620
Set signal latency stall time: 12
Reenqueueing errored packet 65947 at time 20632
Additional hops: 3623
Set signal latency stall time: 6
Additional hops: 3630
Set signal latency stall time: 14
Reenqueueing errored packet 66110 at time 20666
Reenqueueing errored packet 66085 at time 20680
Additional hops: 3636
Set signal latency stall time: 12
Reenqueueing errored packet 66185 at time 20703
Additional hops: 3640
Set signal latency stall time: 8
Reenqueueing errored packet 66392 at time 20766
Additional hops: 3644
Set signal latency stall time: 8
Reenqueueing errored packet 66471 at time 20789
Additional hops: 3652
Set signal latency stall time: 16
Reenqueueing errored packet 66471 at time 20820
Additional hops: 3659
Set signal latency stall time: 14
Additional hops: 3672
Set signal latency stall time: 26
Additional hops: 3681
Set signal latency stall time: 18
Reenqueueing errored packet 66586 at time 20840
Additional hops: 3684
Set signal latency stall time: 6
Reenqueueing errored packet 66710 at time 20854
Reenqueueing errored packet 66614 at time 20856
Reenqueueing errored packet 66542 at time 20856
Additional hops: 3691
Set signal latency stall time: 14
Reenqueueing errored packet 66877 at time 20931
Additional hops: 3702
Set signal latency stall time: 22
Reenqueueing errored packet 67087 at time 21023
Additional hops: 3710
Set signal latency stall time: 16
Reenqueueing errored packet 67188 at time 21043
Additional hops: 3720
Set signal latency stall time: 20
Additional hops: 3727
Set signal latency stall time: 14
Additional hops: 3733
Set signal latency stall time: 12
Reenqueueing errored packet 67273 at time 21066
Reenqueueing errored packet 67234 at time 21068
Reenqueueing errored packet 67298 at time 21070
Additional hops: 3741
Set signal latency stall time: 16
Additional hops: 3749
Set signal latency stall time: 16
Additional hops: 3753
Set signal latency stall time: 8
Reenqueueing errored packet 67464 at time 21113
Reenqueueing errored packet 67409 at time 21116
Reenqueueing errored packet 67407 at time 21117
Additional hops: 3765
Set signal latency stall time: 24
Additional hops: 3770
Set signal latency stall time: 10
Reenqueueing errored packet 67652 at time 21212
Additional hops: 3778
Set signal latency stall time: 16
Additional hops: 3788
Set signal latency stall time: 20
Reenqueueing errored packet 67781 at time 21221
Reenqueueing errored packet 67770 at time 21231
Reenqueueing errored packet 67751 at time 21236
Additional hops: 3797
Set signal latency stall time: 18
Reenqueueing errored packet 67884 at time 21272
Additional hops: 3805
Set signal latency stall time: 16
Additional hops: 3814
Set signal latency stall time: 18
Additional hops: 3826
Set signal latency stall time: 24
Reenqueueing errored packet 68118 at time 21339
Reenqueueing errored packet 68141 at time 21351
Reenqueueing errored packet 68120 at time 21358
Additional hops: 3832
Set signal latency stall time: 12
Additional hops: 3841
Set signal latency stall time: 18
Reenqueueing errored packet 68477 at time 21435
Reenqueueing errored packet 68479 at time 21450
Additional hops: 3850
Set signal latency stall time: 18
Reenqueueing errored packet 68702 at time 21529
Additional hops: 3855
Set signal latency stall time: 10
Additional hops: 3864
Set signal latency stall time: 18
Reenqueueing errored packet 68934 at time 21581
Reenqueueing errored packet 68929 at time 21599
Additional hops: 3873
Set signal latency stall time: 18
Reenqueueing errored packet 68996 at time 21622
Additional hops: 3875
Set signal latency stall time: 4
Reenqueueing errored packet 69276 at time 21678
Additional hops: 3878
Set signal latency stall time: 6
Reenqueueing errored packet 69478 at time 21742
Additional hops: 3887
Set signal latency stall time: 18
Additional hops: 3892
Set signal latency stall time: 10
Reenqueueing errored packet 69617 at time 21816
Reenqueueing errored packet 69701 at time 21819
Additional hops: 3900
Set signal latency stall time: 16
Additional hops: 3902
Set signal latency stall time: 4
Reenqueueing errored packet 69889 at time 21866
Reenqueueing errored packet 69835 at time 21876
Additional hops: 3906
Set signal latency stall time: 8
Reenqueueing errored packet 69917 at time 21887
Additional hops: 3914
Set signal latency stall time: 16
Reenqueueing errored packet 69976 at time 21931
Additional hops: 3922
Set signal latency stall time: 16
Reenqueueing errored packet 70194 at time 21991
Additional hops: 3931
Set signal latency stall time: 18
Additional hops: 3933
Set signal latency stall time: 4
Reenqueueing errored packet 70399 at time 22025
Reenqueueing errored packet 70309 at time 22036
Additional hops: 3938
Set signal latency stall time: 10
Additional hops: 3943
Set signal latency stall time: 10
Additional hops: 3950
Set signal latency stall time: 14
Reenqueueing errored packet 70462 at time 22061
Reenqueueing errored packet 70468 at time 22064
Reenqueueing errored packet 70453 at time 22068
Additional hops: 3959
Set signal latency stall time: 18
Additional hops: 3964
Set signal latency stall time: 10
Reenqueueing errored packet 70850 at time 22211
Reenqueueing errored packet 70914 at time 22213
Additional hops: 3968
Set signal latency stall time: 8
Reenqueueing errored packet 71030 at time 22242
Additional hops: 3969
Set signal latency stall time: 2
Reenqueueing errored packet 71282 at time 22307
Additional hops: 3975
Set signal latency stall time: 12
Reenqueueing errored packet 71428 at time 22374
Additional hops: 3983
Set signal latency stall time: 16
Additional hops: 3987
Set signal latency stall time: 8
Reenqueueing errored packet 71455 at time 22393
Reenqueueing errored packet 71540 at time 22400
Additional hops: 3990
Set signal latency stall time: 6
Reenqueueing errored packet 72031 at time 22551
Additional hops: 3998
Set signal latency stall time: 16
Reenqueueing errored packet 72356 at time 22683
Additional hops: 4003
Set signal latency stall time: 10
Reenqueueing errored packet 72615 at time 22757
Additional hops: 4006
Set signal latency stall time: 6
Reenqueueing errored packet 72847 at time 22824
Additional hops: 4018
Set signal latency stall time: 24
Additional hops: 4024
Set signal latency stall time: 12
Reenqueueing errored packet 72792 at time 22854
Reenqueueing errored packet 72915 at time 22863
Additional hops: 4029
Set signal latency stall time: 10
Additional hops: 4041
Set signal latency stall time: 24
Reenqueueing errored packet 73039 at time 22895
Reenqueueing errored packet 72978 at time 22910
Additional hops: 4052
Set signal latency stall time: 22
Reenqueueing errored packet 73094 at time 22943
Additional hops: 4076
Set signal latency stall time: 48
Reenqueueing errored packet 72978 at time 22997
Additional hops: 4087
Set signal latency stall time: 22
Reenqueueing errored packet 73420 at time 23054
Additional hops: 4091
Set signal latency stall time: 8
Reenqueueing errored packet 73619 at time 23080
Additional hops: 4098
Set signal latency stall time: 14
Reenqueueing errored packet 73881 at time 23177
Additional hops: 4103
Set signal latency stall time: 10
Reenqueueing errored packet 74309 at time 23303
Additional hops: 4110
Set signal latency stall time: 14
Reenqueueing errored packet 74459 at time 23355
Additional hops: 4114
Set signal latency stall time: 8
Reenqueueing errored packet 75031 at time 23506
Additional hops: 4117
Set signal latency stall time: 6
Reenqueueing errored packet 75135 at time 23532
Additional hops: 4124
Set signal latency stall time: 14
Reenqueueing errored packet 75136 at time 23552
Additional hops: 4126
Set signal latency stall time: 4
Reenqueueing errored packet 75233 at time 23557
Additional hops: 4133
Set signal latency stall time: 14
Reenqueueing errored packet 75237 at time 23583
Additional hops: 4142
Set signal latency stall time: 18
Reenqueueing errored packet 75304 at time 23615
Additional hops: 4153
Set signal latency stall time: 22
Reenqueueing errored packet 75665 at time 23732
Additional hops: 4161
Set signal latency stall time: 16
Reenqueueing errored packet 76069 at time 23845
Additional hops: 4173
Set signal latency stall time: 24
Additional hops: 4174
Set signal latency stall time: 2
Reenqueueing errored packet 76527 at time 23945
Reenqueueing errored packet 76367 at time 23949
Additional hops: 4184
Set signal latency stall time: 20
Reenqueueing errored packet 76480 at time 23977
Additional hops: 4194
Set signal latency stall time: 20
Reenqueueing errored packet 77088 at time 24163
Additional hops: 4202
Set signal latency stall time: 16
Additional hops: 4206
Set signal latency stall time: 8
Reenqueueing errored packet 77229 at time 24177
Reenqueueing errored packet 77185 at time 24184
Additional hops: 4215
Set signal latency stall time: 18
Reenqueueing errored packet 77547 at time 24305
Additional hops: 4227
Set signal latency stall time: 24
Reenqueueing errored packet 77653 at time 24353
Additional hops: 4229
Set signal latency stall time: 4
Reenqueueing errored packet 78281 at time 24497
Additional hops: 4234
Set signal latency stall time: 10
Additional hops: 4237
Set signal latency stall time: 6
Reenqueueing errored packet 78322 at time 24528
Reenqueueing errored packet 78349 at time 24529
Additional hops: 4243
Set signal latency stall time: 12
Reenqueueing errored packet 78603 at time 24631
Additional hops: 4248
Set signal latency stall time: 10
Reenqueueing errored packet 78790 at time 24688
Additional hops: 4259
Set signal latency stall time: 22
Reenqueueing errored packet 78781 at time 24717
Additional hops: 4263
Set signal latency stall time: 8
Reenqueueing errored packet 78963 at time 24734
Additional hops: 4267
Set signal latency stall time: 8
Additional hops: 4275
Set signal latency stall time: 16
Reenqueueing errored packet 78985 at time 24743
Reenqueueing errored packet 78952 at time 24753
Additional hops: 4286
Set signal latency stall time: 22
Reenqueueing errored packet 79021 at time 24788
Additional hops: 4296
Set signal latency stall time: 20
Reenqueueing errored packet 79102 at time 24810
Additional hops: 4301
Set signal latency stall time: 10
Reenqueueing errored packet 79240 at time 24829
Additional hops: 4309
Set signal latency stall time: 16
Additional hops: 4313
Set signal latency stall time: 8
Reenqueueing errored packet 79570 at time 24923
Additional hops: 4319
Set signal latency stall time: 12
Reenqueueing errored packet 79521 at time 24930
Reenqueueing errored packet 79599 at time 24942
Additional hops: 4325
Set signal latency stall time: 12
Reenqueueing errored packet 79819 at time 25015
Additional hops: 4326
Set signal latency stall time: 2
Reenqueueing errored packet 80104 at time 25085
Additional hops: 4330
Set signal latency stall time: 8
Reenqueueing errored packet 80195 at time 25132
Additional hops: 4338
Set signal latency stall time: 16
Additional hops: 4346
Set signal latency stall time: 16
Reenqueueing errored packet 80206 at time 25154
Reenqueueing errored packet 80199 at time 25154
Additional hops: 4356
Set signal latency stall time: 20
Reenqueueing errored packet 80457 at time 25244
Additional hops: 4366
Set signal latency stall time: 20
Additional hops: 4375
Set signal latency stall time: 18
Reenqueueing errored packet 80782 at time 25332
Reenqueueing errored packet 80763 at time 25332
Additional hops: 4384
Set signal latency stall time: 18
Reenqueueing errored packet 80867 at time 25361
Additional hops: 4390
Set signal latency stall time: 12
Reenqueueing errored packet 81239 at time 25473
Additional hops: 4396
Set signal latency stall time: 12
Reenqueueing errored packet 81488 at time 25561
Additional hops: 4399
Set signal latency stall time: 6
Reenqueueing errored packet 81661 at time 25600
Additional hops: 4408
Set signal latency stall time: 18
Reenqueueing errored packet 81653 at time 25627
Additional hops: 4411
Set signal latency stall time: 6
Additional hops: 4418
Set signal latency stall time: 14
Reenqueueing errored packet 81951 at time 25698
Reenqueueing errored packet 81928 at time 25708
Additional hops: 4429
Set signal latency stall time: 22
Additional hops: 4437
Set signal latency stall time: 16
Reenqueueing errored packet 82090 at time 25786
Reenqueueing errored packet 82176 at time 25799
Additional hops: 4441
Set signal latency stall time: 8
Reenqueueing errored packet 82367 at time 25841
Additional hops: 4448
Set signal latency stall time: 14
Reenqueueing errored packet 82377 at time 25858
Additional hops: 4455
Set signal latency stall time: 14
Additional hops: 4457
Set signal latency stall time: 4
Reenqueueing errored packet 83002 at time 26037
Reenqueueing errored packet 82920 at time 26040
Additional hops: 4466
Set signal latency stall time: 18
Additional hops: 4476
Set signal latency stall time: 20
Reenqueueing errored packet 82957 at time 26060
Additional hops: 4483
Set signal latency stall time: 14
Reenqueueing errored packet 82976 at time 26071
Reenqueueing errored packet 83064 at time 26079
Additional hops: 4488
Set signal latency stall time: 10
Reenqueueing errored packet 83175 at time 26104
Additional hops: 4491
Set signal latency stall time: 6
Additional hops: 4498
Set signal latency stall time: 14
Reenqueueing errored packet 83327 at time 26134
Additional hops: 4507
Set signal latency stall time: 18
Reenqueueing errored packet 83292 at time 26145
Additional hops: 4513
Set signal latency stall time: 12
Reenqueueing errored packet 83327 at time 26158
Reenqueueing errored packet 83305 at time 26158
Additional hops: 4521
Set signal latency stall time: 16
Reenqueueing errored packet 84021 at time 26372
Additional hops: 4529
Set signal latency stall time: 16
Reenqueueing errored packet 84090 at time 26400
Additional hops: 4533
Set signal latency stall time: 8
Reenqueueing errored packet 84199 at time 26412
Additional hops: 4538
Set signal latency stall time: 10
Reenqueueing errored packet 84364 at time 26471
Additional hops: 4547
Set signal latency stall time: 18
Additional hops: 4552
Set signal latency stall time: 10
Reenqueueing errored packet 84393 at time 26500
Additional hops: 4558
Set signal latency stall time: 12
Additional hops: 4568
Set signal latency stall time: 20
Reenqueueing errored packet 84471 at time 26501
Additional hops: 4573
Set signal latency stall time: 10
Reenqueueing errored packet 84510 at time 26513
Reenqueueing errored packet 84492 at time 26513
Reenqueueing errored packet 84456 at time 26521
Additional hops: 4582
Set signal latency stall time: 18
Additional hops: 4588
Set signal latency stall time: 12
Additional hops: 4594
Set signal latency stall time: 12
Reenqueueing errored packet 84926 at time 26638
Reenqueueing errored packet 84895 at time 26642
Reenqueueing errored packet 84963 at time 26650
Additional hops: 4600
Set signal latency stall time: 12
Additional hops: 4610
Set signal latency stall time: 20
Reenqueueing errored packet 85116 at time 26698
Reenqueueing errored packet 85101 at time 26713
Additional hops: 4621
Set signal latency stall time: 22
Reenqueueing errored packet 85173 at time 26741
Additional hops: 4627
Set signal latency stall time: 12
Reenqueueing errored packet 85337 at time 26765
Additional hops: 4630
Set signal latency stall time: 6
Reenqueueing errored packet 85515 at time 26807
Additional hops: 4636
Set signal latency stall time: 12
Additional hops: 4647
Set signal latency stall time: 22
Reenqueueing errored packet 85594 at time 26844
Additional hops: 4658
Set signal latency stall time: 22
Reenqueueing errored packet 85583 at time 26866
Additional hops: 4664
Set signal latency stall time: 12
Reenqueueing errored packet 85650 at time 26886
Additional hops: 4674
Set signal latency stall time: 20
Reenqueueing errored packet 85777 at time 26897
Reenqueueing errored packet 85780 at time 26917
Additional hops: 4678
Set signal latency stall time: 8
Reenqueueing errored packet 86034 at time 26966
Additional hops: 4685
Set signal latency stall time: 14
Reenqueueing errored packet 86279 at time 27049
Additional hops: 4691
Set signal latency stall time: 12
Additional hops: 4699
Set signal latency stall time: 16
Reenqueueing errored packet 86344 at time 27063
Reenqueueing errored packet 86339 at time 27072
Additional hops: 4703
Set signal latency stall time: 8
Reenqueueing errored packet 86504 at time 27097
Additional hops: 4714
Set signal latency stall time: 22
Reenqueueing errored packet 86632 at time 27167
Additional hops: 4719
Set signal latency stall time: 10
Reenqueueing errored packet 86812 at time 27190
Additional hops: 4726
Set signal latency stall time: 14
Reenqueueing errored packet 86838 at time 27210
Additional hops: 4734
Set signal latency stall time: 16
Additional hops: 4740
Set signal latency stall time: 12
Reenqueueing errored packet 86917 at time 27226
Reenqueueing errored packet 86890 at time 27229
Additional hops: 4745
Set signal latency stall time: 10
Reenqueueing errored packet 87020 at time 27254
Additional hops: 4756
Set signal latency stall time: 22
Reenqueueing errored packet 87046 at time 27293
Additional hops: 4763
Set signal latency stall time: 14
Additional hops: 4767
Set signal latency stall time: 8
Reenqueueing errored packet 87234 at time 27334
Reenqueueing errored packet 87286 at time 27337
Additional hops: 4770
Set signal latency stall time: 6
Reenqueueing errored packet 87358 at time 27355
Additional hops: 4780
Set signal latency stall time: 20
Reenqueueing errored packet 87395 at time 27400
Additional hops: 4789
Set signal latency stall time: 18
Reenqueueing errored packet 87538 at time 27439
Additional hops: 4796
Set signal latency stall time: 14
Reenqueueing errored packet 87661 at time 27467
Additional hops: 4801
Set signal latency stall time: 10
Reenqueueing errored packet 88798 at time 27804
Additional hops: 4808
Set signal latency stall time: 14
Additional hops: 4814
Set signal latency stall time: 12
Reenqueueing errored packet 88863 at time 27828
Reenqueueing errored packet 88848 at time 27829
Additional hops: 4821
Set signal latency stall time: 14
Reenqueueing errored packet 88940 at time 27855
Additional hops: 4827
Set signal latency stall time: 12
Additional hops: 4836
Set signal latency stall time: 18
Reenqueueing errored packet 89201 at time 27928
Additional hops: 4844
Set signal latency stall time: 16
Reenqueueing errored packet 89193 at time 27942
Reenqueueing errored packet 89222 at time 27945
Additional hops: 4847
Set signal latency stall time: 6
Reenqueueing errored packet 89509 at time 28010
Additional hops: 4857
Set signal latency stall time: 20
Additional hops: 4868
Set signal latency stall time: 22
Reenqueueing errored packet 89480 at time 28035
Reenqueueing errored packet 89476 at time 28039
Additional hops: 4876
Set signal latency stall time: 16
Additional hops: 4887
Set signal latency stall time: 22
Reenqueueing errored packet 89639 at time 28081
Reenqueueing errored packet 89658 at time 28100
Additional hops: 4896
Set signal latency stall time: 18
Additional hops: 4901
Set signal latency stall time: 10
Additional hops: 4906
Set signal latency stall time: 10
Reenqueueing errored packet 89779 at time 28129
Reenqueueing errored packet 89855 at time 28132
Reenqueueing errored packet 89867 at time 28136
Additional hops: 4914
Set signal latency stall time: 16
Reenqueueing errored packet 89940 at time 28173
Additional hops: 4919
Set signal latency stall time: 10
Reenqueueing errored packet 90043 at time 28185
Additional hops: 4926
Set signal latency stall time: 14
Reenqueueing errored packet 90134 at time 28225
Additional hops: 4934
Set signal latency stall time: 16
Additional hops: 4942
Set signal latency stall time: 16
Additional hops: 4951
Set signal latency stall time: 18
Reenqueueing errored packet 90254 at time 28263
Reenqueueing errored packet 90290 at time 28276
Reenqueueing errored packet 90286 at time 28279
Additional hops: 4961
Set signal latency stall time: 20
Additional hops: 4964
Set signal latency stall time: 6
Reenqueueing errored packet 90508 at time 28319
Reenqueueing errored packet 90419 at time 28326
Additional hops: 4971
Set signal latency stall time: 14
Reenqueueing errored packet 90559 at time 28357
Additional hops: 4978
Set signal latency stall time: 14
Reenqueueing errored packet 90617 at time 28372
Additional hops: 4986
Set signal latency stall time: 16
Reenqueueing errored packet 90927 at time 28484
Additional hops: 4992
Set signal latency stall time: 12
Reenqueueing errored packet 91244 at time 28588
Additional hops: 5000
Set signal latency stall time: 16
Additional hops: 5008
Set signal latency stall time: 16
Additional hops: 5015
Set signal latency stall time: 14
Reenqueueing errored packet 91425 at time 28651
Reenqueueing errored packet 91464 at time 28655
Reenqueueing errored packet 91457 at time 28657
Additional hops: 5019
Set signal latency stall time: 8
Additional hops: 5033
Set signal latency stall time: 28
Reenqueueing errored packet 91618 at time 28682
Reenqueueing errored packet 91464 at time 28707
Additional hops: 5041
Set signal latency stall time: 16
Reenqueueing errored packet 91734 at time 28743
Additional hops: 5046
Set signal latency stall time: 10
Additional hops: 5052
Set signal latency stall time: 12
Reenqueueing errored packet 91883 at time 28773
Reenqueueing errored packet 91873 at time 28775
Additional hops: 5054
Set signal latency stall time: 4
Reenqueueing errored packet 92046 at time 28813
Additional hops: 5062
Set signal latency stall time: 16
Reenqueueing errored packet 92288 at time 28912
Additional hops: 5071
Set signal latency stall time: 18
Reenqueueing errored packet 92355 at time 28942
Additional hops: 5078
Set signal latency stall time: 14
Reenqueueing errored packet 92537 at time 28990
Additional hops: 5086
Set signal latency stall time: 16
Reenqueueing errored packet 92603 at time 29011
Additional hops: 5088
Set signal latency stall time: 4
Reenqueueing errored packet 93035 at time 29120
Additional hops: 5098
Set signal latency stall time: 20
Reenqueueing errored packet 92998 at time 29149
Additional hops: 5102
Set signal latency stall time: 8
Reenqueueing errored packet 93173 at time 29181
Additional hops: 5105
Set signal latency stall time: 6
Reenqueueing errored packet 93268 at time 29206
Additional hops: 5111
Set signal latency stall time: 12
Reenqueueing errored packet 93608 at time 29324
Additional hops: 5116
Set signal latency stall time: 10
Reenqueueing errored packet 93796 at time 29376
Additional hops: 5127
Set signal latency stall time: 22
Reenqueueing errored packet 93874 at time 29431
Additional hops: 5138
Set signal latency stall time: 22
Reenqueueing errored packet 94483 at time 29617
Additional hops: 5144
Set signal latency stall time: 12
Additional hops: 5150
Set signal latency stall time: 12
Reenqueueing errored packet 94699 at time 29654
Reenqueueing errored packet 94704 at time 29655
Additional hops: 5155
Set signal latency stall time: 10
Reenqueueing errored packet 94776 at time 29674
Additional hops: 5164
Set signal latency stall time: 18
Reenqueueing errored packet 94820 at time 29706
Additional hops: 5177
Set signal latency stall time: 26
Additional hops: 5185
Set signal latency stall time: 16
Reenqueueing errored packet 94924 at time 29735
Reenqueueing errored packet 94859 at time 29741
Additional hops: 5189
Set signal latency stall time: 8
Reenqueueing errored packet 95107 at time 29769
Additional hops: 5195
Set signal latency stall time: 12
Reenqueueing errored packet 95142 at time 29790
Additional hops: 5199
Set signal latency stall time: 8
Reenqueueing errored packet 95238 at time 29805
Additional hops: 5204
Set signal latency stall time: 10
Reenqueueing errored packet 95263 at time 29819
Additional hops: 5208
Set signal latency stall time: 8
Reenqueueing errored packet 95376 at time 29849
Additional hops: 5212
Set signal latency stall time: 8
Reenqueueing errored packet 95447 at time 29871
Additional hops: 5218
Set signal latency stall time: 12
Reenqueueing errored packet 95467 at time 29886
Additional hops: 5227
Set signal latency stall time: 18
Additional hops: 5232
Set signal latency stall time: 10
Reenqueueing errored packet 95652 at time 29947
Reenqueueing errored packet 95726 at time 29951
Class 0:
Packet latency average = 21.096
	minimum = 5
	maximum = 188
Network latency average = 20.7989
	minimum = 5
	maximum = 49
Slowest packet = 63967
Flit latency average = 20.7989
	minimum = 5
	maximum = 49
Slowest flit = 65164
Fragmentation average = 0
	minimum = 0
	maximum = 0
Injected packet rate average = 0.050225
	minimum = 0.045 (at node 58)
	maximum = 0.0545 (at node 43)
Accepted packet rate average = 0.050225
	minimum = 0.0428 (at node 52)
[...]
Set signal latency stall time: 14
Additional hops: 9046
Set signal latency stall time: 10
Reenqueueing errored packet 169474 at time 52992
Reenqueueing errored packet 169510 at time 52995
Additional hops: 9049
Set signal latency stall time: 6
Reenqueueing errored packet 169761 at time 53069
Additional hops: 9056
Set signal latency stall time: 14
Additional hops: 9059
Set signal latency stall time: 6
Reenqueueing errored packet 169952 at time 53153
Reenqueueing errored packet 170018 at time 53156
Additional hops: 9068
Set signal latency stall time: 18
Reenqueueing errored packet 170060 at time 53198
Additional hops: 9074
Set signal latency stall time: 12
Additional hops: 9085
Set signal latency stall time: 22
Reenqueueing errored packet 170191 at time 53225
Reenqueueing errored packet 170162 at time 53240
Additional hops: 9095
Set signal latency stall time: 20
Reenqueueing errored packet 170369 at time 53299
Additional hops: 9098
Set signal latency stall time: 6
Reenqueueing errored packet 170516 at time 53311
Additional hops: 9109
Set signal latency stall time: 22
Reenqueueing errored packet 170495 at time 53345
Additional hops: 9117
Set signal latency stall time: 16
Additional hops: 9129
Set signal latency stall time: 24
Reenqueueing errored packet 170681 at time 53386
Additional hops: 9132
Set signal latency stall time: 6
Additional hops: 9138
Set signal latency stall time: 12
Reenqueueing errored packet 170809 at time 53400
Reenqueueing errored packet 170677 at time 53402
Reenqueueing errored packet 170791 at time 53411
Additional hops: 9140
Set signal latency stall time: 4
Reenqueueing errored packet 170970 at time 53445
Additional hops: 9151
Set signal latency stall time: 22
Reenqueueing errored packet 171036 at time 53507
Additional hops: 9159
Set signal latency stall time: 16
Reenqueueing errored packet 171236 at time 53553
Additional hops: 9167
Set signal latency stall time: 16
Reenqueueing errored packet 171403 at time 53601
Additional hops: 9173
Set signal latency stall time: 12
Reenqueueing errored packet 171788 at time 53714
Additional hops: 9180
Set signal latency stall time: 14
Reenqueueing errored packet 171862 at time 53738
Additional hops: 9190
Set signal latency stall time: 20
Reenqueueing errored packet 172095 at time 53825
Additional hops: 9200
Set signal latency stall time: 20
Additional hops: 9206
Set signal latency stall time: 12
Additional hops: 9212
Set signal latency stall time: 12
Reenqueueing errored packet 172479 at time 53923
Reenqueueing errored packet 172430 at time 53923
Reenqueueing errored packet 172489 at time 53927
Additional hops: 9220
Set signal latency stall time: 16
Additional hops: 9223
Set signal latency stall time: 6
Reenqueueing errored packet 172903 at time 54050
Additional hops: 9226
Set signal latency stall time: 6
Reenqueueing errored packet 172855 at time 54058
Reenqueueing errored packet 172943 at time 54062
Additional hops: 9235
Set signal latency stall time: 18
Reenqueueing errored packet 173033 at time 54118
Additional hops: 9243
Set signal latency stall time: 16
Reenqueueing errored packet 173215 at time 54166
Additional hops: 9248
Set signal latency stall time: 10
Reenqueueing errored packet 173473 at time 54235
Additional hops: 9255
Set signal latency stall time: 14
Reenqueueing errored packet 173620 at time 54291
Additional hops: 9259
Set signal latency stall time: 8
Reenqueueing errored packet 173884 at time 54353
Additional hops: 9270
Set signal latency stall time: 22
Additional hops: 9281
Set signal latency stall time: 22
Additional hops: 9287
Set signal latency stall time: 12
Reenqueueing errored packet 173933 at time 54376
Reenqueueing errored packet 173870 at time 54384
Additional hops: 9296
Set signal latency stall time: 18
Reenqueueing errored packet 173873 at time 54385
Additional hops: 9303
Set signal latency stall time: 14
Reenqueueing errored packet 174015 at time 54403
Reenqueueing errored packet 173981 at time 54403
Additional hops: 9313
Set signal latency stall time: 20
Reenqueueing errored packet 174178 at time 54464
Additional hops: 9324
Set signal latency stall time: 22
Reenqueueing errored packet 174472 at time 54561
Additional hops: 9330
Set signal latency stall time: 12
Reenqueueing errored packet 174685 at time 54613
Additional hops: 9339
Set signal latency stall time: 18
Additional hops: 9345
Set signal latency stall time: 12
Reenqueueing errored packet 174979 at time 54717
Additional hops: 9353
Set signal latency stall time: 16
Additional hops: 9363
Set signal latency stall time: 20
Reenqueueing errored packet 174951 at time 54722
Reenqueueing errored packet 175000 at time 54734
Reenqueueing errored packet 174987 at time 54741
Additional hops: 9371
Set signal latency stall time: 16
Additional hops: 9379
Set signal latency stall time: 16
Additional hops: 9384
Set signal latency stall time: 10
Reenqueueing errored packet 175309 at time 54816
Reenqueueing errored packet 175256 at time 54817
Reenqueueing errored packet 175258 at time 54819
Additional hops: 9394
Set signal latency stall time: 20
Additional hops: 9399
Set signal latency stall time: 10
Reenqueueing errored packet 175334 at time 54849
Reenqueueing errored packet 175419 at time 54852
Additional hops: 9403
Set signal latency stall time: 8
Reenqueueing errored packet 175474 at time 54866
Additional hops: 9409
Set signal latency stall time: 12
Reenqueueing errored packet 175506 at time 54887
Additional hops: 9416
Set signal latency stall time: 14
Reenqueueing errored packet 176169 at time 55095
Additional hops: 9423
Set signal latency stall time: 14
Additional hops: 9436
Set signal latency stall time: 26
Reenqueueing errored packet 176262 at time 55122
Reenqueueing errored packet 176237 at time 55144
Additional hops: 9445
Set signal latency stall time: 18
Reenqueueing errored packet 176372 at time 55166
Additional hops: 9452
Set signal latency stall time: 14
Additional hops: 9458
Set signal latency stall time: 12
Additional hops: 9465
Set signal latency stall time: 14
Reenqueueing errored packet 176554 at time 55210
Reenqueueing errored packet 176538 at time 55211
Reenqueueing errored packet 176583 at time 55223
Additional hops: 9476
Set signal latency stall time: 22
Reenqueueing errored packet 176812 at time 55308
Additional hops: 9486
Set signal latency stall time: 20
Reenqueueing errored packet 176988 at time 55365
Additional hops: 9494
Set signal latency stall time: 16
Reenqueueing errored packet 177083 at time 55383
Additional hops: 9500
Set signal latency stall time: 12
Additional hops: 9506
Set signal latency stall time: 12
Reenqueueing errored packet 177240 at time 55426
Additional hops: 9514
Set signal latency stall time: 16
Reenqueueing errored packet 177272 at time 55434
Additional hops: 9523
Set signal latency stall time: 18
Reenqueueing errored packet 177291 at time 55450
Reenqueueing errored packet 177330 at time 55466
Additional hops: 9539
Set signal latency stall time: 32
Reenqueueing errored packet 177291 at time 55509
Additional hops: 9554
Set signal latency stall time: 30
Additional hops: 9564
Set signal latency stall time: 20
Additional hops: 9571
Set signal latency stall time: 14
Additional hops: 9573
Set signal latency stall time: 4
Additional hops: 9582
Set signal latency stall time: 18
Reenqueueing errored packet 177704 at time 55540
Reenqueueing errored packet 177621 at time 55541
Reenqueueing errored packet 177583 at time 55545
Reenqueueing errored packet 177504 at time 55549
Reenqueueing errored packet 177648 at time 55558
Additional hops: 9586
Set signal latency stall time: 8
Reenqueueing errored packet 177824 at time 55587
Additional hops: 9593
Set signal latency stall time: 14
Reenqueueing errored packet 177859 at time 55615
Additional hops: 9599
Set signal latency stall time: 12
Reenqueueing errored packet 177923 at time 55629
Additional hops: 9606
Set signal latency stall time: 14
Reenqueueing errored packet 178228 at time 55735
Additional hops: 9616
Set signal latency stall time: 20
Reenqueueing errored packet 178541 at time 55839
Additional hops: 9625
Set signal latency stall time: 18
Additional hops: 9633
Set signal latency stall time: 16
Reenqueueing errored packet 178756 at time 55900
Reenqueueing errored packet 178799 at time 55910
Additional hops: 9640
Set signal latency stall time: 14
Additional hops: 9644
Set signal latency stall time: 8
Reenqueueing errored packet 178914 at time 55941
Reenqueueing errored packet 178970 at time 55945
Additional hops: 9647
Set signal latency stall time: 6
Reenqueueing errored packet 179156 at time 55992
Additional hops: 9653
Set signal latency stall time: 12
Reenqueueing errored packet 179277 at time 56051
Additional hops: 9660
Set signal latency stall time: 14
Reenqueueing errored packet 179404 at time 56091
Additional hops: 9664
Set signal latency stall time: 8
Reenqueueing errored packet 179533 at time 56114
Additional hops: 9666
Set signal latency stall time: 4
Reenqueueing errored packet 179656 at time 56140
Additional hops: 9674
Set signal latency stall time: 16
Additional hops: 9684
Set signal latency stall time: 20
Reenqueueing errored packet 179707 at time 56185
Additional hops: 9690
Set signal latency stall time: 12
Additional hops: 9699
Set signal latency stall time: 18
Reenqueueing errored packet 179698 at time 56192
Reenqueueing errored packet 179785 at time 56201
Additional hops: 9709
Set signal latency stall time: 20
Reenqueueing errored packet 179758 at time 56207
Reenqueueing errored packet 179801 at time 56224
Additional hops: 9718
Set signal latency stall time: 18
Additional hops: 9723
Set signal latency stall time: 10
Reenqueueing errored packet 180394 at time 56399
Reenqueueing errored packet 180504 at time 56408
Additional hops: 9728
Set signal latency stall time: 10
Reenqueueing errored packet 181041 at time 56587
Additional hops: 9736
Set signal latency stall time: 16
Reenqueueing errored packet 181336 at time 56695
Additional hops: 9743
Set signal latency stall time: 14
Additional hops: 9750
Set signal latency stall time: 14
Reenqueueing errored packet 182130 at time 56940
Reenqueueing errored packet 182147 at time 56946
Additional hops: 9760
Set signal latency stall time: 20
Additional hops: 9771
Set signal latency stall time: 22
Reenqueueing errored packet 182190 at time 56978
Reenqueueing errored packet 182213 at time 56994
Additional hops: 9784
Set signal latency stall time: 26
Reenqueueing errored packet 182490 at time 57089
Additional hops: 9792
Set signal latency stall time: 16
Reenqueueing errored packet 182894 at time 57182
Additional hops: 9799
Set signal latency stall time: 14
Reenqueueing errored packet 183009 at time 57210
Additional hops: 9812
Set signal latency stall time: 26
Reenqueueing errored packet 183194 at time 57291
Additional hops: 9824
Set signal latency stall time: 24
Reenqueueing errored packet 183465 at time 57366
Additional hops: 9848
Set signal latency stall time: 48
Additional hops: 9863
Set signal latency stall time: 30
Reenqueueing errored packet 183465 at time 57453
Additional hops: 9869
Set signal latency stall time: 12
Additional hops: 9874
Set signal latency stall time: 10
Reenqueueing errored packet 183742 at time 57466
Reenqueueing errored packet 183906 at time 57471
Reenqueueing errored packet 183933 at time 57474
Additional hops: 9883
Set signal latency stall time: 18
Reenqueueing errored packet 184057 at time 57533
Additional hops: 9893
Set signal latency stall time: 20
Additional hops: 9901
Set signal latency stall time: 16
Reenqueueing errored packet 184212 at time 57582
Reenqueueing errored packet 184253 at time 57587
Additional hops: 9913
Set signal latency stall time: 24
Additional hops: 9921
Set signal latency stall time: 16
Reenqueueing errored packet 184297 at time 57621
Reenqueueing errored packet 184393 at time 57630
Additional hops: 9945
Set signal latency stall time: 48
Additional hops: 9953
Set signal latency stall time: 16
Reenqueueing errored packet 184634 at time 57705
Reenqueueing errored packet 184297 at time 57708
Additional hops: 9962
Set signal latency stall time: 18
Reenqueueing errored packet 184786 at time 57759
Additional hops: 9970
Set signal latency stall time: 16
Reenqueueing errored packet 184992 at time 57821
Additional hops: 9976
Set signal latency stall time: 12
Additional hops: 9984
Set signal latency stall time: 16
Additional hops: 9989
Set signal latency stall time: 10
Reenqueueing errored packet 185220 at time 57879
Reenqueueing errored packet 185203 at time 57883
Reenqueueing errored packet 185261 at time 57884
Additional hops: 9997
Set signal latency stall time: 16
Additional hops: 10004
Set signal latency stall time: 14
Reenqueueing errored packet 185330 at time 57919
Reenqueueing errored packet 185352 at time 57922
Additional hops: 10013
Set signal latency stall time: 18
Additional hops: 10026
Set signal latency stall time: 26
Reenqueueing errored packet 185445 at time 57960
Reenqueueing errored packet 185451 at time 57983
Additional hops: 10032
Set signal latency stall time: 12
Additional hops: 10041
Set signal latency stall time: 18
Reenqueueing errored packet 185783 at time 58039
Additional hops: 10043
Set signal latency stall time: 4
Reenqueueing errored packet 185880 at time 58051
Reenqueueing errored packet 185771 at time 58051
Additional hops: 10047
Set signal latency stall time: 8
Additional hops: 10054
Set signal latency stall time: 14
Reenqueueing errored packet 186136 at time 58151
Reenqueueing errored packet 186125 at time 58159
Additional hops: 10062
Set signal latency stall time: 16
Additional hops: 10066
Set signal latency stall time: 8
Reenqueueing errored packet 186236 at time 58183
Reenqueueing errored packet 186194 at time 58188
Additional hops: 10071
Set signal latency stall time: 10
Reenqueueing errored packet 186362 at time 58233
Additional hops: 10074
Set signal latency stall time: 6
Reenqueueing errored packet 186443 at time 58246
Additional hops: 10079
Set signal latency stall time: 10
Reenqueueing errored packet 186540 at time 58287
Additional hops: 10091
Set signal latency stall time: 24
Additional hops: 10099
Set signal latency stall time: 16
Reenqueueing errored packet 186884 at time 58414
Reenqueueing errored packet 186825 at time 58414
Additional hops: 10108
Set signal latency stall time: 18
Reenqueueing errored packet 187232 at time 58528
Additional hops: 10111
Set signal latency stall time: 6
Reenqueueing errored packet 187372 at time 58539
Additional hops: 10115
Set signal latency stall time: 8
Reenqueueing errored packet 187699 at time 58642
Additional hops: 10125
Set signal latency stall time: 20
Reenqueueing errored packet 187868 at time 58727
Additional hops: 10128
Set signal latency stall time: 6
Reenqueueing errored packet 188141 at time 58777
Additional hops: 10133
Set signal latency stall time: 10
Reenqueueing errored packet 188251 at time 58815
Additional hops: 10139
Set signal latency stall time: 12
Additional hops: 10144
Set signal latency stall time: 10
Reenqueueing errored packet 188279 at time 58829
Reenqueueing errored packet 188305 at time 58832
Additional hops: 10151
Set signal latency stall time: 14
Additional hops: 10159
Set signal latency stall time: 16
Reenqueueing errored packet 188469 at time 58901
Reenqueueing errored packet 188476 at time 58909
Additional hops: 10166
Set signal latency stall time: 14
Reenqueueing errored packet 188601 at time 58949
Additional hops: 10173
Set signal latency stall time: 14
Reenqueueing errored packet 188741 at time 58994
Additional hops: 10176
Set signal latency stall time: 6
Reenqueueing errored packet 188879 at time 59013
Additional hops: 10185
Set signal latency stall time: 18
Reenqueueing errored packet 188906 at time 59050
Additional hops: 10192
Set signal latency stall time: 14
Additional hops: 10199
Set signal latency stall time: 14
Reenqueueing errored packet 189257 at time 59144
Reenqueueing errored packet 189283 at time 59153
Additional hops: 10205
Set signal latency stall time: 12
Reenqueueing errored packet 189523 at time 59221
Additional hops: 10212
Set signal latency stall time: 14
Additional hops: 10220
Set signal latency stall time: 16
Reenqueueing errored packet 189686 at time 59287
Additional hops: 10223
Set signal latency stall time: 6
Reenqueueing errored packet 189700 at time 59296
Reenqueueing errored packet 189803 at time 59302
Additional hops: 10228
Set signal latency stall time: 10
Additional hops: 10237
Set signal latency stall time: 18
Reenqueueing errored packet 189806 at time 59313
Reenqueueing errored packet 189793 at time 59329
Additional hops: 10241
Set signal latency stall time: 8
Reenqueueing errored packet 190016 at time 59374
Additional hops: 10246
Set signal latency stall time: 10
Reenqueueing errored packet 190253 at time 59454
Additional hops: 10253
Set signal latency stall time: 14
Reenqueueing errored packet 190311 at time 59482
Additional hops: 10258
Set signal latency stall time: 10
Reenqueueing errored packet 190635 at time 59572
Additional hops: 10265
Set signal latency stall time: 14
Reenqueueing errored packet 190680 at time 59595
Additional hops: 10273
Set signal latency stall time: 16
Reenqueueing errored packet 191076 at time 59721
Additional hops: 10279
Set signal latency stall time: 12
Additional hops: 10285
Set signal latency stall time: 12
Reenqueueing errored packet 191365 at time 59797
Reenqueueing errored packet 191379 at time 59800
Additional hops: 10288
Set signal latency stall time: 6
Reenqueueing errored packet 191501 at time 59824
Additional hops: 10294
Set signal latency stall time: 12
Reenqueueing errored packet 191607 at time 59875
Additional hops: 10297
Set signal latency stall time: 6
Reenqueueing errored packet 191926 at time 59956
Additional hops: 10304
Set signal latency stall time: 14
Additional hops: 10314
Set signal latency stall time: 20
Reenqueueing errored packet 191960 at time 59987
Reenqueueing errored packet 191943 at time 59996
Class 0:
Packet latency average = 21.1195
	minimum = 5
	maximum = 188
Network latency average = 20.8345
	minimum = 5
	maximum = 48
Slowest packet = 96140
Flit latency average = 20.8372
	minimum = 5
	maximum = 48
Slowest flit = 96422
Fragmentation average = 0
	minimum = 0
	maximum = 0
Injected packet rate average = 0.0504328
	minimum = 0.0481333 (at node 37)
	maximum = 0.0529667 (at node 19)
Accepted packet rate average = 0.0504359
	minimum = 0.0474333 (at node 37)
	maximum = 0.0533 (at node 28)
Injected flit rate average = 0.0504328
	minimum = 0.0481333 (at node 37)
	maximum = 0.0529667 (at node 19)
Accepted flit rate average= 0.0504359
	minimum = 0.0474333 (at node 37)
	maximum = 0.0533 (at node 28)
Injected packet length average = 1
Accepted packet length average = 1
Total in-flight flits = 63 (63 measured)
latency change    = 0.000701841
throughput change = 0.000542148
Draining all recorded packets ...
Draining remaining packets ...
Time taken is 60069 cycles
====== Overall Traffic Statistics ======
====== Traffic class 0 ======
Packet latency average = 21.1229 (1 samples)
	minimum = 5 (1 samples)
	maximum = 188 (1 samples)
Network latency average = 20.8372 (1 samples)
	minimum = 5 (1 samples)
	maximum = 48 (1 samples)
Flit latency average = 20.8395 (1 samples)
	minimum = 5 (1 samples)
	maximum = 48 (1 samples)
Fragmentation average = 0 (1 samples)
	minimum = 0 (1 samples)
	maximum = 0 (1 samples)
Injected packet rate average = 0.0504328 (1 samples)
	minimum = 0.0481333 (1 samples)
	maximum = 0.0529667 (1 samples)
Accepted packet rate average = 0.0504359 (1 samples)
	minimum = 0.0474333 (1 samples)
	maximum = 0.0533 (1 samples)
Injected flit rate average = 0.0504328 (1 samples)
	minimum = 0.0481333 (1 samples)
	maximum = 0.0529667 (1 samples)
Accepted flit rate average = 0.0504359 (1 samples)
	minimum = 0.0474333 (1 samples)
	maximum = 0.0533 (1 samples)
Injected packet size average = 1 (1 samples)
Accepted packet size average = 1 (1 samples)
Hops average = 6.29641 (1 samples)
Total run time 33.1589
