BEGIN Configuration File: examples/ecc_mesh88_config_1_0.100_packet_4
// $Id$

// Copyright (c) 2007-2015, Trustees of The Leland Stanford Junior University
// All rights reserved.
//
// Redistribution and use in source and binary forms, with or without
// modification, are permitted provided that the following conditions are met:
//
// Redistributions of source code must retain the above copyright notice, this
// list of conditions and the following disclaimer.
// Redistributions in binary form must reproduce the above copyright notice,
// this list of conditions and the following disclaimer in the documentation
// and/or other materials provided with the distribution.
//
// THIS SOFTWARE IS PROVIDED BY THE COPYRIGHT HOLDERS AND CONTRIBUTORS "AS IS"
// AND ANY EXPRESS OR IMPLIED WARRANTIES, INCLUDING, BUT NOT LIMITED TO, THE
// IMPLIED WARRANTIES OF MERCHANTABILITY AND FITNESS FOR A PARTICULAR PURPOSE
// ARE DISCLAIMED. IN NO EVENT SHALL THE COPYRIGHT OWNER OR CONTRIBUTORS BE
// LIABLE FOR ANY DIRECT, INDIRECT, INCIDENTAL, SPECIAL, EXEMPLARY, OR
// CONSEQUENTIAL DAMAGES (INCLUDING, BUT NOT LIMITED TO, PROCUREMENT OF
// SUBSTITUTE GOODS OR SERVICES; LOSS OF USE, DATA, OR PROFITS; OR BUSINESS
// INTERRUPTION) HOWEVER CAUSED AND ON ANY THEORY OF LIABILITY, WHETHER IN
// CONTRACT, STRICT LIABILITY, OR TORT (INCLUDING NEGLIGENCE OR OTHERWISE)
// ARISING IN ANY WAY OUT OF THE USE OF THIS SOFTWARE, EVEN IF ADVISED OF THE
// POSSIBILITY OF SUCH DAMAGE.

// Dragonfly
//




vc_buf_size = 256;


wait_for_tail_credit = 0;

//
// Router architecture
//
vc_allocator = separable_input_first; 
sw_allocator = separable_input_first;
alloc_iters  = 1;

credit_delay   = 2;
routing_delay  = 0;
vc_alloc_delay = 1;
sw_alloc_delay = 1;
st_final_delay = 1;

input_speedup     = 1;
output_speedup    = 1;
internal_speedup  = 2.0;


warmup_periods = 3;
sim_count          = 1;

sample_period  = 10000;  


routing_function = dor;
num_vcs     = 2;

priority = none;
traffic       = uniform; 

injection_rate = 0.1;
packet_size = 1;
injection_rate_uses_flits = 1;

topology = mesh;

k  = 8;
n  = 2;

fer = 4;
ecc = link;

watch_out=-;
//watch_file = watch.txt;

ecc = packet;

stats_out = examples/ecc_mesh88_config_1_0.100_packet_4.m;

END Configuration File: examples/ecc_mesh88_config_1_0.100_packet_4
Additional hops: 3
Set signal latency stall time: 6
Reenqueueing errored packet 2334 at time 392
Additional hops: 11
Set signal latency stall time: 16
Reenqueueing errored packet 2732 at time 477
Additional hops: 15
Set signal latency stall time: 8
Reenqueueing errored packet 3637 at time 597
Additional hops: 23
Set signal latency stall time: 16
Reenqueueing errored packet 4365 at time 740
Additional hops: 34
Set signal latency stall time: 22
Reenqueueing errored packet 4764 at time 814
Additional hops: 45
Set signal latency stall time: 22
Reenqueueing errored packet 5882 at time 986
Additional hops: 56
Set signal latency stall time: 22
Reenqueueing errored packet 6562 at time 1095
Additional hops: 60
Set signal latency stall time: 8
Reenqueueing errored packet 8929 at time 1433
Additional hops: 69
Set signal latency stall time: 18
Reenqueueing errored packet 9492 at time 1542
Additional hops: 75
Set signal latency stall time: 12
Reenqueueing errored packet 9830 at time 1582
Additional hops: 79
Set signal latency stall time: 8
Reenqueueing errored packet 10336 at time 1652
Additional hops: 90
Set signal latency stall time: 22
Reenqueueing errored packet 12064 at time 1951
Additional hops: 97
Set signal latency stall time: 14
Reenqueueing errored packet 16934 at time 2693
Additional hops: 100
Set signal latency stall time: 6
Reenqueueing errored packet 17225 at time 2719
Additional hops: 110
Set signal latency stall time: 20
Reenqueueing errored packet 17256 at time 2759
Additional hops: 115
Set signal latency stall time: 10
Reenqueueing errored packet 20803 at time 3279
Additional hops: 119
Set signal latency stall time: 8
Reenqueueing errored packet 22064 at time 3472
Additional hops: 122
Set signal latency stall time: 6
Reenqueueing errored packet 22563 at time 3543
Additional hops: 133
Set signal latency stall time: 22
Reenqueueing errored packet 24647 at time 3915
Additional hops: 139
Set signal latency stall time: 12
Reenqueueing errored packet 25559 at time 4034
Additional hops: 143
Set signal latency stall time: 8
Reenqueueing errored packet 26601 at time 4190
Additional hops: 153
Set signal latency stall time: 20
Reenqueueing errored packet 27469 at time 4362
Additional hops: 157
Set signal latency stall time: 8
Additional hops: 165
Set signal latency stall time: 16
Reenqueueing errored packet 28415 at time 4484
Reenqueueing errored packet 28347 at time 4495
Additional hops: 169
Set signal latency stall time: 8
Additional hops: 176
Set signal latency stall time: 14
Reenqueueing errored packet 30158 at time 4759
Reenqueueing errored packet 30128 at time 4771
Additional hops: 186
Set signal latency stall time: 20
Reenqueueing errored packet 31170 at time 4951
Additional hops: 192
Set signal latency stall time: 12
Reenqueueing errored packet 32221 at time 5091
Additional hops: 202
Set signal latency stall time: 20
Reenqueueing errored packet 33383 at time 5281
Additional hops: 211
Set signal latency stall time: 18
Reenqueueing errored packet 36129 at time 5711
Additional hops: 217
Set signal latency stall time: 12
Reenqueueing errored packet 39355 at time 6191
Additional hops: 225
Set signal latency stall time: 16
Reenqueueing errored packet 40267 at time 6344
Additional hops: 230
Set signal latency stall time: 10
Reenqueueing errored packet 40892 at time 6432
Additional hops: 235
Set signal latency stall time: 10
Reenqueueing errored packet 41796 at time 6570
Additional hops: 245
Set signal latency stall time: 20
Reenqueueing errored packet 43460 at time 6853
Additional hops: 253
Set signal latency stall time: 16
Reenqueueing errored packet 43859 at time 6908
Additional hops: 263
Set signal latency stall time: 20
Reenqueueing errored packet 45402 at time 7157
Additional hops: 272
Set signal latency stall time: 18
Reenqueueing errored packet 48705 at time 7664
Additional hops: 280
Set signal latency stall time: 16
Reenqueueing errored packet 49240 at time 7743
Additional hops: 285
Set signal latency stall time: 10
Reenqueueing errored packet 52596 at time 8246
Additional hops: 295
Set signal latency stall time: 20
Reenqueueing errored packet 56447 at time 8879
Additional hops: 300
Set signal latency stall time: 10
Reenqueueing errored packet 58491 at time 9164
Additional hops: 303
Set signal latency stall time: 6
Reenqueueing errored packet 58601 at time 9172
Additional hops: 312
Set signal latency stall time: 18
Reenqueueing errored packet 58682 at time 9214
Additional hops: 320
Set signal latency stall time: 16
Reenqueueing errored packet 59805 at time 9380
Additional hops: 327
Set signal latency stall time: 14
Reenqueueing errored packet 63372 at time 9926
Class 0:
Packet latency average = 21.0411
	minimum = 5
	maximum = 95
Network latency average = 21.0131
	minimum = 5
	maximum = 50
Slowest packet = 654
Flit latency average = 21.0131
	minimum = 5
	maximum = 50
Slowest flit = 31047
Fragmentation average = 0
	minimum = 0
	maximum = 0
Injected packet rate average = 0.100205
	minimum = 0.0927 (at node 12)
	maximum = 0.1077 (at node 59)
Accepted packet rate average = 0.0999984
	minimum = 0.0934 (at node 36)
	maximum = 0.1058 (at node 51)
Injected flit rate average = 0.100205
	minimum = 0.0927 (at node 12)
	maximum = 0.1077 (at node 59)
Accepted flit rate average= 0.0999984
	minimum = 0.0934 (at node 36)
	maximum = 0.1058 (at node 51)
Injected packet length average = 1
Accepted packet length average = 1
Total in-flight flits = 132 (0 measured)
latency change    = 1
throughput change = 1
Additional hops: 337
Set signal latency stall time: 20
Reenqueueing errored packet 64457 at time 10113
Additional hops: 343
Set signal latency stall time: 12
Reenqueueing errored packet 66130 at time 10347
Additional hops: 347
Set signal latency stall time: 8
Reenqueueing errored packet 70134 at time 10962
Additional hops: 352
Set signal latency stall time: 10
Reenqueueing errored packet 72424 at time 11329
Additional hops: 361
Set signal latency stall time: 18
Reenqueueing errored packet 72806 at time 11410
Additional hops: 365
Set signal latency stall time: 8
Reenqueueing errored packet 74495 at time 11646
Additional hops: 371
Set signal latency stall time: 12
Reenqueueing errored packet 74939 at time 11726
Additional hops: 380
Set signal latency stall time: 18
Reenqueueing errored packet 75609 at time 11839
Additional hops: 386
Set signal latency stall time: 12
Reenqueueing errored packet 75880 at time 11866
Additional hops: 395
Set signal latency stall time: 18
Reenqueueing errored packet 76373 at time 11959
Additional hops: 405
Set signal latency stall time: 20
Reenqueueing errored packet 76581 at time 11992
Additional hops: 408
Set signal latency stall time: 6
Reenqueueing errored packet 77523 at time 12114
Additional hops: 418
Set signal latency stall time: 20
Reenqueueing errored packet 79666 at time 12484
Additional hops: 428
Set signal latency stall time: 20
Reenqueueing errored packet 81748 at time 12801
Additional hops: 434
Set signal latency stall time: 12
Reenqueueing errored packet 82695 at time 12930
Additional hops: 439
Set signal latency stall time: 10
Reenqueueing errored packet 83336 at time 13029
Additional hops: 448
Set signal latency stall time: 18
Reenqueueing errored packet 85015 at time 13308
Additional hops: 452
Set signal latency stall time: 8
Reenqueueing errored packet 87400 at time 13646
Additional hops: 458
Set signal latency stall time: 12
Reenqueueing errored packet 87470 at time 13666
Additional hops: 468
Set signal latency stall time: 20
Reenqueueing errored packet 88659 at time 13872
Additional hops: 477
Set signal latency stall time: 18
Reenqueueing errored packet 89300 at time 13977
Additional hops: 489
Set signal latency stall time: 24
Additional hops: 498
Set signal latency stall time: 18
Reenqueueing errored packet 89465 at time 14013
Reenqueueing errored packet 89580 at time 14015
Additional hops: 504
Set signal latency stall time: 12
Reenqueueing errored packet 89990 at time 14059
Additional hops: 512
Set signal latency stall time: 16
Reenqueueing errored packet 92207 at time 14413
Additional hops: 522
Set signal latency stall time: 20
Additional hops: 532
Set signal latency stall time: 20
Reenqueueing errored packet 95385 at time 14920
Reenqueueing errored packet 95418 at time 14925
Additional hops: 535
Set signal latency stall time: 6
Reenqueueing errored packet 96130 at time 15000
Additional hops: 542
Set signal latency stall time: 14
Reenqueueing errored packet 97188 at time 15179
Additional hops: 549
Set signal latency stall time: 14
Reenqueueing errored packet 100091 at time 15622
Additional hops: 559
Set signal latency stall time: 20
Reenqueueing errored packet 100578 at time 15710
Additional hops: 566
Set signal latency stall time: 14
Reenqueueing errored packet 102580 at time 16020
Additional hops: 570
Set signal latency stall time: 8
Reenqueueing errored packet 103630 at time 16164
Additional hops: 576
Set signal latency stall time: 12
Reenqueueing errored packet 104311 at time 16284
Additional hops: 586
Set signal latency stall time: 20
Reenqueueing errored packet 104607 at time 16352
Additional hops: 589
Set signal latency stall time: 6
Reenqueueing errored packet 105223 at time 16415
Additional hops: 594
Set signal latency stall time: 10
Reenqueueing errored packet 106784 at time 16681
Additional hops: 605
Set signal latency stall time: 22
Reenqueueing errored packet 107670 at time 16844
Additional hops: 610
Set signal latency stall time: 10
Reenqueueing errored packet 108845 at time 16996
Additional hops: 618
Set signal latency stall time: 16
Reenqueueing errored packet 111469 at time 17423
Additional hops: 627
Set signal latency stall time: 18
Reenqueueing errored packet 111605 at time 17447
Additional hops: 636
Set signal latency stall time: 18
Reenqueueing errored packet 111739 at time 17469
Additional hops: 642
Set signal latency stall time: 12
Reenqueueing errored packet 113220 at time 17677
Additional hops: 649
Set signal latency stall time: 14
Reenqueueing errored packet 113968 at time 17799
Additional hops: 656
Set signal latency stall time: 14
Reenqueueing errored packet 114145 at time 17828
Additional hops: 670
Set signal latency stall time: 28
Reenqueueing errored packet 116677 at time 18276
Additional hops: 678
Set signal latency stall time: 16
Reenqueueing errored packet 118058 at time 18473
Additional hops: 688
Set signal latency stall time: 20
Reenqueueing errored packet 118345 at time 18527
Additional hops: 690
Set signal latency stall time: 4
Reenqueueing errored packet 120902 at time 18886
Additional hops: 693
Set signal latency stall time: 6
Reenqueueing errored packet 123255 at time 19268
Additional hops: 704
Set signal latency stall time: 22
Reenqueueing errored packet 123755 at time 19384
Additional hops: 709
Set signal latency stall time: 10
Reenqueueing errored packet 127887 at time 19995
Class 0:
Packet latency average = 21.0467
	minimum = 5
	maximum = 119
Network latency average = 21.0166
	minimum = 5
	maximum = 50
Slowest packet = 654
Flit latency average = 21.0166
	minimum = 5
	maximum = 50
Slowest flit = 31047
Fragmentation average = 0
	minimum = 0
	maximum = 0
Injected packet rate average = 0.100152
	minimum = 0.09585 (at node 12)
	maximum = 0.10575 (at node 18)
Accepted packet rate average = 0.100062
	minimum = 0.0957 (at node 46)
	maximum = 0.1043 (at node 1)
Injected flit rate average = 0.100152
	minimum = 0.09585 (at node 12)
	maximum = 0.10575 (at node 18)
Accepted flit rate average= 0.100062
	minimum = 0.0957 (at node 46)
	maximum = 0.1043 (at node 1)
Injected packet length average = 1
Accepted packet length average = 1
Total in-flight flits = 115 (0 measured)
latency change    = 0.000264672
throughput change = 0.000632422
Additional hops: 713
Set signal latency stall time: 8
Reenqueueing errored packet 128877 at time 20151
Additional hops: 719
Set signal latency stall time: 12
Reenqueueing errored packet 129023 at time 20186
Additional hops: 724
Set signal latency stall time: 10
Reenqueueing errored packet 131561 at time 20584
Additional hops: 729
Set signal latency stall time: 10
Reenqueueing errored packet 132513 at time 20733
Additional hops: 733
Set signal latency stall time: 8
Reenqueueing errored packet 133458 at time 20880
Additional hops: 739
Set signal latency stall time: 12
Reenqueueing errored packet 133485 at time 20895
Additional hops: 746
Set signal latency stall time: 14
Reenqueueing errored packet 138824 at time 21717
Additional hops: 749
Set signal latency stall time: 6
Reenqueueing errored packet 142187 at time 22213
Additional hops: 756
Set signal latency stall time: 14
Reenqueueing errored packet 142948 at time 22348
Additional hops: 761
Set signal latency stall time: 10
Reenqueueing errored packet 144556 at time 22594
Additional hops: 766
Set signal latency stall time: 10
Reenqueueing errored packet 145751 at time 22773
Additional hops: 773
Set signal latency stall time: 14
Reenqueueing errored packet 146727 at time 22934
Additional hops: 778
Set signal latency stall time: 10
Reenqueueing errored packet 147116 at time 22984
Additional hops: 784
Set signal latency stall time: 12
Reenqueueing errored packet 148038 at time 23136
Additional hops: 794
Set signal latency stall time: 20
Reenqueueing errored packet 148298 at time 23196
Additional hops: 806
Set signal latency stall time: 24
Reenqueueing errored packet 148432 at time 23227
Additional hops: 812
Set signal latency stall time: 12
Reenqueueing errored packet 150447 at time 23521
Additional hops: 821
Set signal latency stall time: 18
Reenqueueing errored packet 150575 at time 23555
Additional hops: 833
Set signal latency stall time: 24
Reenqueueing errored packet 151059 at time 23645
Additional hops: 840
Set signal latency stall time: 14
Additional hops: 850
Set signal latency stall time: 20
Reenqueueing errored packet 151405 at time 23668
Reenqueueing errored packet 151344 at time 23674
Additional hops: 855
Set signal latency stall time: 10
Reenqueueing errored packet 152515 at time 23836
Additional hops: 863
Set signal latency stall time: 16
Reenqueueing errored packet 152696 at time 23881
Additional hops: 869
Set signal latency stall time: 12
Reenqueueing errored packet 153077 at time 23932
Additional hops: 875
Set signal latency stall time: 12
Reenqueueing errored packet 154565 at time 24174
Additional hops: 878
Set signal latency stall time: 6
Reenqueueing errored packet 155254 at time 24270
Additional hops: 884
Set signal latency stall time: 12
Reenqueueing errored packet 155342 at time 24301
Additional hops: 890
Set signal latency stall time: 12
Reenqueueing errored packet 157615 at time 24657
Additional hops: 897
Set signal latency stall time: 14
Reenqueueing errored packet 159000 at time 24888
Additional hops: 906
Set signal latency stall time: 18
Additional hops: 914
Set signal latency stall time: 16
Reenqueueing errored packet 159792 at time 25030
Reenqueueing errored packet 159884 at time 25040
Additional hops: 926
Set signal latency stall time: 24
Reenqueueing errored packet 166581 at time 26103
Additional hops: 931
Set signal latency stall time: 10
Reenqueueing errored packet 169663 at time 26551
Additional hops: 937
Set signal latency stall time: 12
Reenqueueing errored packet 170450 at time 26674
Additional hops: 944
Set signal latency stall time: 14
Reenqueueing errored packet 171271 at time 26809
Additional hops: 947
Set signal latency stall time: 6
Reenqueueing errored packet 172884 at time 27036
Additional hops: 954
Set signal latency stall time: 14
Reenqueueing errored packet 175850 at time 27528
Additional hops: 959
Set signal latency stall time: 10
Reenqueueing errored packet 181563 at time 28419
Additional hops: 964
Set signal latency stall time: 10
Reenqueueing errored packet 181846 at time 28469
Additional hops: 972
Set signal latency stall time: 16
Reenqueueing errored packet 183929 at time 28812
Additional hops: 981
Set signal latency stall time: 18
Reenqueueing errored packet 185782 at time 29108
Additional hops: 990
Set signal latency stall time: 18
Reenqueueing errored packet 188008 at time 29467
Additional hops: 1000
Set signal latency stall time: 20
Reenqueueing errored packet 190993 at time 29934
Class 0:
Packet latency average = 20.9966
	minimum = 5
	maximum = 101
Network latency average = 20.971
	minimum = 5
	maximum = 50
Slowest packet = 127850
Flit latency average = 20.971
	minimum = 5
	maximum = 50
Slowest flit = 176631
Fragmentation average = 0
	minimum = 0
	maximum = 0
Injected packet rate average = 0.0995172
	minimum = 0.0907 (at node 4)
	maximum = 0.1068 (at node 19)
Accepted packet rate average = 0.099475
	minimum = 0.093 (at node 38)
	maximum = 0.1058 (at node 43)
Injected flit rate average = 0.0995172
	minimum = 0.0907 (at node 4)
	maximum = 0.1068 (at node 19)
Accepted flit rate average= 0.099475
	minimum = 0.093 (at node 38)
	maximum = 0.1058 (at node 43)
Injected packet length average = 1
Accepted packet length average = 1
Total in-flight flits = 142 (0 measured)
latency change    = 0.0023871
throughput change = 0.00589815
Warmed up ...Time used is 30000 cycles
Additional hops: 1008
Set signal latency stall time: 16
Reenqueueing errored packet 191754 at time 30044
Additional hops: 1017
Set signal latency stall time: 18
Reenqueueing errored packet 192309 at time 30137
Additional hops: 1023
Set signal latency stall time: 12
Reenqueueing errored packet 193696 at time 30338
Additional hops: 1033
Set signal latency stall time: 20
Reenqueueing errored packet 194473 at time 30479
Additional hops: 1035
Set signal latency stall time: 4
Reenqueueing errored packet 198071 at time 31000
Additional hops: 1041
Set signal latency stall time: 12
Reenqueueing errored packet 199949 at time 31317
Additional hops: 1051
Set signal latency stall time: 20
Additional hops: 1064
Set signal latency stall time: 26
Reenqueueing errored packet 201419 at time 31559
Reenqueueing errored packet 201464 at time 31582
Additional hops: 1071
Set signal latency stall time: 14
Reenqueueing errored packet 202752 at time 31760
Additional hops: 1075
Set signal latency stall time: 8
Reenqueueing errored packet 204846 at time 32069
Additional hops: 1082
Set signal latency stall time: 14
Reenqueueing errored packet 205024 at time 32109
Additional hops: 1090
Set signal latency stall time: 16
Reenqueueing errored packet 206551 at time 32354
Additional hops: 1098
Set signal latency stall time: 16
Reenqueueing errored packet 206676 at time 32376
Additional hops: 1104
Set signal latency stall time: 12
Reenqueueing errored packet 210229 at time 32919
Additional hops: 1109
Set signal latency stall time: 10
Reenqueueing errored packet 210688 at time 32982
Additional hops: 1118
Set signal latency stall time: 18
Reenqueueing errored packet 211170 at time 33072
Additional hops: 1127
Set signal latency stall time: 18
Reenqueueing errored packet 211407 at time 33114
Additional hops: 1139
Set signal latency stall time: 24
Reenqueueing errored packet 211574 at time 33153
Additional hops: 1145
Set signal latency stall time: 12
Additional hops: 1155
Set signal latency stall time: 20
Reenqueueing errored packet 215258 at time 33681
Reenqueueing errored packet 215196 at time 33690
Additional hops: 1161
Set signal latency stall time: 12
Reenqueueing errored packet 216067 at time 33806
Additional hops: 1172
Set signal latency stall time: 22
Reenqueueing errored packet 216419 at time 33886
Additional hops: 1180
Set signal latency stall time: 16
Reenqueueing errored packet 218533 at time 34203
Additional hops: 1183
Set signal latency stall time: 6
Reenqueueing errored packet 219429 at time 34317
Additional hops: 1193
Set signal latency stall time: 20
Reenqueueing errored packet 221064 at time 34605
Additional hops: 1203
Set signal latency stall time: 20
Reenqueueing errored packet 227343 at time 35588
Additional hops: 1216
Set signal latency stall time: 26
Reenqueueing errored packet 235840 at time 36934
Additional hops: 1220
Set signal latency stall time: 8
Additional hops: 1223
Set signal latency stall time: 6
Reenqueueing errored packet 236478 at time 36991
Reenqueueing errored packet 236531 at time 36994
Additional hops: 1231
Set signal latency stall time: 16
Reenqueueing errored packet 236970 at time 37089
Additional hops: 1238
Set signal latency stall time: 14
Reenqueueing errored packet 237630 at time 37186
Additional hops: 1250
Set signal latency stall time: 24
Reenqueueing errored packet 238590 at time 37361
Additional hops: 1255
Set signal latency stall time: 10
Reenqueueing errored packet 239455 at time 37467
Additional hops: 1267
Set signal latency stall time: 24
Reenqueueing errored packet 240821 at time 37710
Additional hops: 1277
Set signal latency stall time: 20
Reenqueueing errored packet 241211 at time 37765
Additional hops: 1286
Set signal latency stall time: 18
Reenqueueing errored packet 241963 at time 37876
Additional hops: 1292
Set signal latency stall time: 12
Reenqueueing errored packet 242673 at time 37971
Additional hops: 1299
Set signal latency stall time: 14
Reenqueueing errored packet 246523 at time 38578
Additional hops: 1307
Set signal latency stall time: 16
Reenqueueing errored packet 247057 at time 38663
Additional hops: 1310
Set signal latency stall time: 6
Reenqueueing errored packet 248375 at time 38856
Additional hops: 1315
Set signal latency stall time: 10
Reenqueueing errored packet 250155 at time 39143
Additional hops: 1320
Set signal latency stall time: 10
Reenqueueing errored packet 251901 at time 39419
Class 0:
Packet latency average = 21.0246
	minimum = 5
	maximum = 112
Network latency average = 20.9974
	minimum = 5
	maximum = 52
Slowest packet = 191745
Flit latency average = 21.0045
	minimum = 5
	maximum = 52
Slowest flit = 248597
Fragmentation average = 0
	minimum = 0
	maximum = 0
Injected packet rate average = 0.100069
	minimum = 0.0938 (at node 62)
	maximum = 0.1049 (at node 12)
Accepted packet rate average = 0.100083
	minimum = 0.0923 (at node 21)
	maximum = 0.1059 (at node 28)
Injected flit rate average = 0.100069
	minimum = 0.0938 (at node 62)
	maximum = 0.1049 (at node 12)
Accepted flit rate average= 0.100083
	minimum = 0.0923 (at node 21)
	maximum = 0.1059 (at node 28)
Injected packet length average = 1
Accepted packet length average = 1
Total in-flight flits = 133 (133 measured)
latency change    = 0.0013329
throughput change = 0.0060731
Additional hops: 1331
Set signal latency stall time: 22
Reenqueueing errored packet 255721 at time 40054
Additional hops: 1334
Set signal latency stall time: 6
Reenqueueing errored packet 258147 at time 40414
Additional hops: 1339
Set signal latency stall time: 10
Reenqueueing errored packet 261217 at time 40900
Additional hops: 1346
Set signal latency stall time: 14
Reenqueueing errored packet 263095 at time 41207
Additional hops: 1353
Set signal latency stall time: 14
Reenqueueing errored packet 263315 at time 41241
Additional hops: 1362
Set signal latency stall time: 18
Reenqueueing errored packet 265941 at time 41652
Additional hops: 1365
Set signal latency stall time: 6
Reenqueueing errored packet 267002 at time 41790
Additional hops: 1379
Set signal latency stall time: 28
Reenqueueing errored packet 267227 at time 41882
Additional hops: 1383
Set signal latency stall time: 8
Reenqueueing errored packet 268095 at time 41969
Additional hops: 1387
Set signal latency stall time: 8
Reenqueueing errored packet 269729 at time 42227
Additional hops: 1392
Set signal latency stall time: 10
Reenqueueing errored packet 273219 at time 42783
Additional hops: 1399
Set signal latency stall time: 14
Additional hops: 1408
Set signal latency stall time: 18
Reenqueueing errored packet 274361 at time 42968
Reenqueueing errored packet 274371 at time 42980
Additional hops: 1416
Set signal latency stall time: 16
Reenqueueing errored packet 276872 at time 43365
Additional hops: 1426
Set signal latency stall time: 20
Reenqueueing errored packet 278380 at time 43618
Additional hops: 1431
Set signal latency stall time: 10
Reenqueueing errored packet 278747 at time 43649
Additional hops: 1442
Set signal latency stall time: 22
Reenqueueing errored packet 280224 at time 43913
Additional hops: 1451
Set signal latency stall time: 18
Reenqueueing errored packet 280911 at time 44010
Additional hops: 1456
Set signal latency stall time: 10
Reenqueueing errored packet 282518 at time 44239
Additional hops: 1461
Set signal latency stall time: 10
Reenqueueing errored packet 283934 at time 44457
Additional hops: 1469
Set signal latency stall time: 16
Reenqueueing errored packet 286054 at time 44807
Additional hops: 1471
Set signal latency stall time: 4
Reenqueueing errored packet 291063 at time 45565
Additional hops: 1477
Set signal latency stall time: 12
Reenqueueing errored packet 292441 at time 45795
Additional hops: 1484
Set signal latency stall time: 14
Reenqueueing errored packet 297449 at time 46576
Additional hops: 1492
Set signal latency stall time: 16
Reenqueueing errored packet 297902 at time 46656
Additional hops: 1503
Set signal latency stall time: 22
Reenqueueing errored packet 302151 at time 47330
Additional hops: 1511
Set signal latency stall time: 16
Reenqueueing errored packet 305867 at time 47885
Additional hops: 1517
Set signal latency stall time: 12
Reenqueueing errored packet 306889 at time 48047
Additional hops: 1520
Set signal latency stall time: 6
Reenqueueing errored packet 307039 at time 48055
Additional hops: 1533
Set signal latency stall time: 26
Reenqueueing errored packet 308541 at time 48344
Additional hops: 1543
Set signal latency stall time: 20
Reenqueueing errored packet 309316 at time 48447
Additional hops: 1551
Set signal latency stall time: 16
Additional hops: 1563
Set signal latency stall time: 24
Reenqueueing errored packet 313343 at time 49064
Reenqueueing errored packet 313350 at time 49084
Additional hops: 1566
Set signal latency stall time: 6
Reenqueueing errored packet 315689 at time 49413
Additional hops: 1568
Set signal latency stall time: 4
Reenqueueing errored packet 317397 at time 49678
Class 0:
Packet latency average = 21.0286
	minimum = 5
	maximum = 117
Network latency average = 21.0043
	minimum = 5
	maximum = 52
Slowest packet = 191745
Flit latency average = 21.0079
	minimum = 5
	maximum = 52
Slowest flit = 248597
Fragmentation average = 0
	minimum = 0
	maximum = 0
Injected packet rate average = 0.0999242
	minimum = 0.0948 (at node 34)
	maximum = 0.10525 (at node 38)
Accepted packet rate average = 0.0999172
	minimum = 0.0929 (at node 21)
	maximum = 0.10495 (at node 28)
Injected flit rate average = 0.0999242
	minimum = 0.0948 (at node 34)
	maximum = 0.10525 (at node 38)
Accepted flit rate average= 0.0999172
	minimum = 0.0929 (at node 21)
	maximum = 0.10495 (at node 28)
Injected packet length average = 1
Accepted packet length average = 1
Total in-flight flits = 151 (151 measured)
latency change    = 0.000190906
throughput change = 0.00165762
Additional hops: 1574
Set signal latency stall time: 12
Reenqueueing errored packet 320336 at time 50157
Additional hops: 1580
Set signal latency stall time: 12
Reenqueueing errored packet 322644 at time 50518
Additional hops: 1588
Set signal latency stall time: 16
Reenqueueing errored packet 322772 at time 50549
Additional hops: 1593
Set signal latency stall time: 10
Reenqueueing errored packet 324154 at time 50754
Additional hops: 1599
Set signal latency stall time: 12
Reenqueueing errored packet 325318 at time 50934
Additional hops: 1607
Set signal latency stall time: 16
Reenqueueing errored packet 326444 at time 51122
Additional hops: 1618
Set signal latency stall time: 22
Reenqueueing errored packet 327190 at time 51249
Additional hops: 1623
Set signal latency stall time: 10
Reenqueueing errored packet 328522 at time 51434
Additional hops: 1633
Set signal latency stall time: 20
Reenqueueing errored packet 328567 at time 51468
Additional hops: 1640
Set signal latency stall time: 14
Reenqueueing errored packet 329493 at time 51597
Additional hops: 1643
Set signal latency stall time: 6
Reenqueueing errored packet 329679 at time 51606
Additional hops: 1652
Set signal latency stall time: 18
Reenqueueing errored packet 332817 at time 52119
Additional hops: 1662
Set signal latency stall time: 20
Reenqueueing errored packet 334369 at time 52367
Additional hops: 1667
Set signal latency stall time: 10
Reenqueueing errored packet 335027 at time 52447
Additional hops: 1677
Set signal latency stall time: 20
Reenqueueing errored packet 336396 at time 52691
Additional hops: 1687
Set signal latency stall time: 20
Reenqueueing errored packet 338363 at time 53001
Additional hops: 1690
Set signal latency stall time: 6
Reenqueueing errored packet 344637 at time 53965
Additional hops: 1694
Set signal latency stall time: 8
Reenqueueing errored packet 346000 at time 54193
Additional hops: 1703
Set signal latency stall time: 18
Reenqueueing errored packet 346885 at time 54364
Additional hops: 1711
Set signal latency stall time: 16
Reenqueueing errored packet 349753 at time 54809
Additional hops: 1718
Set signal latency stall time: 14
Reenqueueing errored packet 351933 at time 55139
Additional hops: 1723
Set signal latency stall time: 10
Reenqueueing errored packet 352808 at time 55258
Additional hops: 1725
Set signal latency stall time: 4
Reenqueueing errored packet 354688 at time 55539
Additional hops: 1732
Set signal latency stall time: 14
Reenqueueing errored packet 355925 at time 55754
Additional hops: 1742
Set signal latency stall time: 20
Reenqueueing errored packet 359301 at time 56298
Additional hops: 1752
Set signal latency stall time: 20
Reenqueueing errored packet 359614 at time 56346
Additional hops: 1761
Set signal latency stall time: 18
Reenqueueing errored packet 366666 at time 57447
Additional hops: 1771
Set signal latency stall time: 20
Additional hops: 1778
Set signal latency stall time: 14
Reenqueueing errored packet 366862 at time 57484
Reenqueueing errored packet 367034 at time 57496
Additional hops: 1780
Set signal latency stall time: 4
Reenqueueing errored packet 367419 at time 57533
Additional hops: 1785
Set signal latency stall time: 10
Reenqueueing errored packet 368324 at time 57685
Additional hops: 1792
Set signal latency stall time: 14
Reenqueueing errored packet 368440 at time 57715
Additional hops: 1805
Set signal latency stall time: 26
Additional hops: 1814
Set signal latency stall time: 18
Additional hops: 1817
Set signal latency stall time: 6
Reenqueueing errored packet 371535 at time 58214
Reenqueueing errored packet 371726 at time 58216
Reenqueueing errored packet 371459 at time 58220
Additional hops: 1822
Set signal latency stall time: 10
Reenqueueing errored packet 372314 at time 58317
Additional hops: 1828
Set signal latency stall time: 12
Reenqueueing errored packet 373154 at time 58453
Additional hops: 1836
Set signal latency stall time: 16
Reenqueueing errored packet 373664 at time 58546
Additional hops: 1842
Set signal latency stall time: 12
Reenqueueing errored packet 374037 at time 58596
Additional hops: 1850
Set signal latency stall time: 16
Reenqueueing errored packet 375147 at time 58775
Additional hops: 1863
Set signal latency stall time: 26
Reenqueueing errored packet 376507 at time 59006
Additional hops: 1876
Set signal latency stall time: 26
Reenqueueing errored packet 376801 at time 59052
Additional hops: 1883
Set signal latency stall time: 14
Additional hops: 1887
Set signal latency stall time: 8
Reenqueueing errored packet 378711 at time 59329
Reenqueueing errored packet 378809 at time 59330
Additional hops: 1896
Set signal latency stall time: 18
Reenqueueing errored packet 379285 at time 59434
Additional hops: 1904
Set signal latency stall time: 16
Reenqueueing errored packet 379793 at time 59508
Additional hops: 1912
Set signal latency stall time: 16
Reenqueueing errored packet 380820 at time 59664
Class 0:
Packet latency average = 21.0102
	minimum = 5
	maximum = 117
Network latency average = 20.9842
	minimum = 5
	maximum = 52
Slowest packet = 191745
Flit latency average = 20.9866
	minimum = 5
	maximum = 52
Slowest flit = 248597
Fragmentation average = 0
	minimum = 0
	maximum = 0
Injected packet rate average = 0.0997911
	minimum = 0.0966333 (at node 60)
	maximum = 0.103333 (at node 26)
Accepted packet rate average = 0.0997917
	minimum = 0.0947 (at node 21)
	maximum = 0.105033 (at node 52)
Injected flit rate average = 0.0997911
	minimum = 0.0966333 (at node 60)
	maximum = 0.103333 (at node 26)
Accepted flit rate average= 0.0997917
	minimum = 0.0947 (at node 21)
	maximum = 0.105033 (at node 52)
Injected packet length average = 1
Accepted packet length average = 1
Total in-flight flits = 141 (141 measured)
latency change    = 0.000875727
throughput change = 0.00125783
Draining all recorded packets ...
Draining remaining packets ...
Time taken is 60073 cycles
====== Overall Traffic Statistics ======
====== Traffic class 0 ======
Packet latency average = 21.0136 (1 samples)
	minimum = 5 (1 samples)
	maximum = 117 (1 samples)
Network latency average = 20.9876 (1 samples)
	minimum = 5 (1 samples)
	maximum = 52 (1 samples)
Flit latency average = 20.9914 (1 samples)
	minimum = 5 (1 samples)
	maximum = 52 (1 samples)
Fragmentation average = 0 (1 samples)
	minimum = 0 (1 samples)
	maximum = 0 (1 samples)
Injected packet rate average = 0.0997911 (1 samples)
	minimum = 0.0966333 (1 samples)
	maximum = 0.103333 (1 samples)
Accepted packet rate average = 0.0997917 (1 samples)
	minimum = 0.0947 (1 samples)
	maximum = 0.105033 (1 samples)
Injected flit rate average = 0.0997911 (1 samples)
	minimum = 0.0966333 (1 samples)
	maximum = 0.103333 (1 samples)
Accepted flit rate average = 0.0997917 (1 samples)
	minimum = 0.0947 (1 samples)
	maximum = 0.105033 (1 samples)
Injected packet size average = 1 (1 samples)
Accepted packet size average = 1 (1 samples)
Hops average = 6.25552 (1 samples)
Total run time 55.0563
