BEGIN Configuration File: examples/ecc_mesh88_config_1_0.750_packet_5
// $Id$

// Copyright (c) 2007-2015, Trustees of The Leland Stanford Junior University
// All rights reserved.
//
// Redistribution and use in source and binary forms, with or without
// modification, are permitted provided that the following conditions are met:
//
// Redistributions of source code must retain the above copyright notice, this
// list of conditions and the following disclaimer.
// Redistributions in binary form must reproduce the above copyright notice,
// this list of conditions and the following disclaimer in the documentation
// and/or other materials provided with the distribution.
//
// THIS SOFTWARE IS PROVIDED BY THE COPYRIGHT HOLDERS AND CONTRIBUTORS "AS IS"
// AND ANY EXPRESS OR IMPLIED WARRANTIES, INCLUDING, BUT NOT LIMITED TO, THE
// IMPLIED WARRANTIES OF MERCHANTABILITY AND FITNESS FOR A PARTICULAR PURPOSE
// ARE DISCLAIMED. IN NO EVENT SHALL THE COPYRIGHT OWNER OR CONTRIBUTORS BE
// LIABLE FOR ANY DIRECT, INDIRECT, INCIDENTAL, SPECIAL, EXEMPLARY, OR
// CONSEQUENTIAL DAMAGES (INCLUDING, BUT NOT LIMITED TO, PROCUREMENT OF
// SUBSTITUTE GOODS OR SERVICES; LOSS OF USE, DATA, OR PROFITS; OR BUSINESS
// INTERRUPTION) HOWEVER CAUSED AND ON ANY THEORY OF LIABILITY, WHETHER IN
// CONTRACT, STRICT LIABILITY, OR TORT (INCLUDING NEGLIGENCE OR OTHERWISE)
// ARISING IN ANY WAY OUT OF THE USE OF THIS SOFTWARE, EVEN IF ADVISED OF THE
// POSSIBILITY OF SUCH DAMAGE.

// Dragonfly
//




vc_buf_size = 256;


wait_for_tail_credit = 0;

//
// Router architecture
//
vc_allocator = separable_input_first; 
sw_allocator = separable_input_first;
alloc_iters  = 1;

credit_delay   = 2;
routing_delay  = 0;
vc_alloc_delay = 1;
sw_alloc_delay = 1;
st_final_delay = 1;

input_speedup     = 1;
output_speedup    = 1;
internal_speedup  = 2.0;


warmup_periods = 3;
sim_count          = 1;

sample_period  = 10000;  


routing_function = dor;
num_vcs     = 2;

priority = none;
traffic       = uniform; 

injection_rate = 0.75;
packet_size = 1;
injection_rate_uses_flits = 1;

topology = mesh;

k  = 8;
n  = 2;

fer = 5;
ecc = link;

watch_out=-;
//watch_file = watch.txt;

ecc = packet;

stats_out = examples/ecc_mesh88_config_1_0.750_packet_5.m;

END Configuration File: examples/ecc_mesh88_config_1_0.750_packet_5
Additional hops: 3
Set signal latency stall time: 6
Reenqueueing errored packet 7108 at time 170
Additional hops: 9
Set signal latency stall time: 12
Reenqueueing errored packet 6931 at time 205
Additional hops: 16
Set signal latency stall time: 14
Reenqueueing errored packet 21050 at time 607
Additional hops: 19
Set signal latency stall time: 6
Reenqueueing errored packet 37770 at time 905
Additional hops: 20
Set signal latency stall time: 2
Reenqueueing errored packet 43565 at time 914
Additional hops: 28
Set signal latency stall time: 16
Reenqueueing errored packet 55752 at time 1863
Additional hops: 33
Set signal latency stall time: 10
Reenqueueing errored packet 121901 at time 3067
Additional hops: 36
Set signal latency stall time: 6
Reenqueueing errored packet 154303 at time 3244
Additional hops: 41
Set signal latency stall time: 10
Reenqueueing errored packet 129448 at time 3646
Additional hops: 43
Set signal latency stall time: 4
Reenqueueing errored packet 151825 at time 4012
Additional hops: 45
Set signal latency stall time: 4
Reenqueueing errored packet 186268 at time 4155
Additional hops: 50
Set signal latency stall time: 10
Reenqueueing errored packet 173003 at time 4166
Additional hops: 57
Set signal latency stall time: 14
Reenqueueing errored packet 179700 at time 4258
Additional hops: 63
Set signal latency stall time: 12
Reenqueueing errored packet 231213 at time 5225
Additional hops: 67
Set signal latency stall time: 8
Reenqueueing errored packet 188490 at time 5498
Additional hops: 76
Set signal latency stall time: 18
Reenqueueing errored packet 129700 at time 5522
Additional hops: 81
Set signal latency stall time: 10
Additional hops: 89
Set signal latency stall time: 16
Reenqueueing errored packet 225017 at time 5915
Additional hops: 96
Set signal latency stall time: 14
Additional hops: 102
Set signal latency stall time: 12
Reenqueueing errored packet 151706 at time 6320
Additional hops: 113
Set signal latency stall time: 22
Additional hops: 126
Set signal latency stall time: 26
Additional hops: 135
Set signal latency stall time: 18
Reenqueueing errored packet 320070 at time 8684
Additional hops: 143
Set signal latency stall time: 16
Additional hops: 150
Set signal latency stall time: 14
Reenqueueing errored packet 338285 at time 8930
Additional hops: 155
Set signal latency stall time: 10
Reenqueueing errored packet 352831 at time 9000
Class 0:
Packet latency average = 1265.06
	minimum = 5
	maximum = 7080
Network latency average = 1203.28
	minimum = 5
	maximum = 5827
Slowest packet = 191973
Flit latency average = 1203.28
	minimum = 5
	maximum = 5827
Slowest flit = 195693
Fragmentation average = 0
	minimum = 0
	maximum = 0
Injected packet rate average = 0.615834
	minimum = 0.4628 (at node 46)
	maximum = 0.7563 (at node 11)
Accepted packet rate average = 0.508575
	minimum = 0.4883 (at node 21)
	maximum = 0.5236 (at node 7)
Injected flit rate average = 0.615834
	minimum = 0.4628 (at node 46)
	maximum = 0.7563 (at node 11)
Accepted flit rate average= 0.508575
	minimum = 0.4883 (at node 21)
	maximum = 0.5236 (at node 7)
Injected packet length average = 1
Accepted packet length average = 1
Total in-flight flits = 68677 (0 measured)
latency change    = 1
throughput change = 1
Average latency for class 0 exceeded 500 cycles. Aborting simulation.
Too many sample periods needed to converge
Simulation unstable, ending ...
Total run time 58.9744
