BEGIN Configuration File: examples/ecc_mesh88_config_1_0.550_packet_5
// $Id$

// Copyright (c) 2007-2015, Trustees of The Leland Stanford Junior University
// All rights reserved.
//
// Redistribution and use in source and binary forms, with or without
// modification, are permitted provided that the following conditions are met:
//
// Redistributions of source code must retain the above copyright notice, this
// list of conditions and the following disclaimer.
// Redistributions in binary form must reproduce the above copyright notice,
// this list of conditions and the following disclaimer in the documentation
// and/or other materials provided with the distribution.
//
// THIS SOFTWARE IS PROVIDED BY THE COPYRIGHT HOLDERS AND CONTRIBUTORS "AS IS"
// AND ANY EXPRESS OR IMPLIED WARRANTIES, INCLUDING, BUT NOT LIMITED TO, THE
// IMPLIED WARRANTIES OF MERCHANTABILITY AND FITNESS FOR A PARTICULAR PURPOSE
// ARE DISCLAIMED. IN NO EVENT SHALL THE COPYRIGHT OWNER OR CONTRIBUTORS BE
// LIABLE FOR ANY DIRECT, INDIRECT, INCIDENTAL, SPECIAL, EXEMPLARY, OR
// CONSEQUENTIAL DAMAGES (INCLUDING, BUT NOT LIMITED TO, PROCUREMENT OF
// SUBSTITUTE GOODS OR SERVICES; LOSS OF USE, DATA, OR PROFITS; OR BUSINESS
// INTERRUPTION) HOWEVER CAUSED AND ON ANY THEORY OF LIABILITY, WHETHER IN
// CONTRACT, STRICT LIABILITY, OR TORT (INCLUDING NEGLIGENCE OR OTHERWISE)
// ARISING IN ANY WAY OUT OF THE USE OF THIS SOFTWARE, EVEN IF ADVISED OF THE
// POSSIBILITY OF SUCH DAMAGE.

// Dragonfly
//




vc_buf_size = 256;


wait_for_tail_credit = 0;

//
// Router architecture
//
vc_allocator = separable_input_first; 
sw_allocator = separable_input_first;
alloc_iters  = 1;

credit_delay   = 2;
routing_delay  = 0;
vc_alloc_delay = 1;
sw_alloc_delay = 1;
st_final_delay = 1;

input_speedup     = 1;
output_speedup    = 1;
internal_speedup  = 2.0;


warmup_periods = 3;
sim_count          = 1;

sample_period  = 10000;  


routing_function = dor;
num_vcs     = 2;

priority = none;
traffic       = uniform; 

injection_rate = 0.55;
packet_size = 1;
injection_rate_uses_flits = 1;

topology = mesh;

k  = 8;
n  = 2;

fer = 5;
ecc = link;

watch_out=-;
//watch_file = watch.txt;

ecc = packet;

stats_out = examples/ecc_mesh88_config_1_0.550_packet_5.m;

END Configuration File: examples/ecc_mesh88_config_1_0.550_packet_5
Additional hops: 9
Set signal latency stall time: 18
Reenqueueing errored packet 4685 at time 200
Additional hops: 18
Set signal latency stall time: 18
Reenqueueing errored packet 6628 at time 307
Additional hops: 27
Set signal latency stall time: 18
Reenqueueing errored packet 15857 at time 642
Additional hops: 34
Set signal latency stall time: 14
Reenqueueing errored packet 31573 at time 999
Additional hops: 40
Set signal latency stall time: 12
Reenqueueing errored packet 34641 at time 1045
Additional hops: 49
Set signal latency stall time: 18
Reenqueueing errored packet 53634 at time 1847
Additional hops: 63
Set signal latency stall time: 28
Reenqueueing errored packet 59428 at time 2088
Additional hops: 72
Set signal latency stall time: 18
Reenqueueing errored packet 90129 at time 2763
Additional hops: 77
Set signal latency stall time: 10
Reenqueueing errored packet 129066 at time 3933
Additional hops: 86
Set signal latency stall time: 18
Reenqueueing errored packet 136895 at time 4170
Additional hops: 92
Set signal latency stall time: 12
Reenqueueing errored packet 137677 at time 4385
Additional hops: 101
Set signal latency stall time: 18
Reenqueueing errored packet 132215 at time 4438
Additional hops: 107
Set signal latency stall time: 12
Reenqueueing errored packet 145874 at time 4906
Additional hops: 118
Set signal latency stall time: 22
Reenqueueing errored packet 147586 at time 5002
Additional hops: 129
Set signal latency stall time: 22
Reenqueueing errored packet 155165 at time 5162
Additional hops: 132
Set signal latency stall time: 6
Additional hops: 139
Set signal latency stall time: 14
Reenqueueing errored packet 226298 at time 6446
Reenqueueing errored packet 212385 at time 6460
Additional hops: 147
Set signal latency stall time: 16
Reenqueueing errored packet 228900 at time 7512
Additional hops: 158
Set signal latency stall time: 22
Reenqueueing errored packet 239599 at time 7825
Additional hops: 167
Set signal latency stall time: 18
Reenqueueing errored packet 274925 at time 8451
Additional hops: 174
Set signal latency stall time: 14
Reenqueueing errored packet 282537 at time 9098
Additional hops: 180
Set signal latency stall time: 12
Reenqueueing errored packet 275181 at time 9132
Additional hops: 187
Set signal latency stall time: 14
Reenqueueing errored packet 305476 at time 9743
Additional hops: 191
Set signal latency stall time: 8
Reenqueueing errored packet 332115 at time 9974
Class 0:
Packet latency average = 372.836
	minimum = 5
	maximum = 2276
Network latency average = 372.809
	minimum = 5
	maximum = 1855
Slowest packet = 144860
Flit latency average = 372.809
	minimum = 5
	maximum = 1855
Slowest flit = 286335
Fragmentation average = 0
	minimum = 0
	maximum = 0
Injected packet rate average = 0.549573
	minimum = 0.5389 (at node 40)
	maximum = 0.5631 (at node 26)
Accepted packet rate average = 0.508769
	minimum = 0.494 (at node 21)
	maximum = 0.5228 (at node 14)
Injected flit rate average = 0.549573
	minimum = 0.5389 (at node 40)
	maximum = 0.5631 (at node 26)
Accepted flit rate average= 0.508769
	minimum = 0.494 (at node 21)
	maximum = 0.5228 (at node 14)
Injected packet length average = 1
Accepted packet length average = 1
Total in-flight flits = 26115 (0 measured)
latency change    = 1
throughput change = 1
Additional hops: 199
Set signal latency stall time: 16
Reenqueueing errored packet 307348 at time 10055
Additional hops: 208
Set signal latency stall time: 18
Reenqueueing errored packet 317187 at time 10347
Additional hops: 216
Set signal latency stall time: 16
Reenqueueing errored packet 380351 at time 11655
Additional hops: 224
Set signal latency stall time: 16
Reenqueueing errored packet 356945 at time 11963
Additional hops: 229
Set signal latency stall time: 10
Reenqueueing errored packet 364383 at time 11979
Additional hops: 235
Set signal latency stall time: 12
Reenqueueing errored packet 432619 at time 12343
Additional hops: 239
Set signal latency stall time: 8
Reenqueueing errored packet 436763 at time 12439
Additional hops: 244
Set signal latency stall time: 10
Reenqueueing errored packet 416319 at time 12732
Additional hops: 255
Set signal latency stall time: 22
Reenqueueing errored packet 398498 at time 13597
Additional hops: 260
Set signal latency stall time: 10
Reenqueueing errored packet 495249 at time 14185
Additional hops: 269
Set signal latency stall time: 18
Reenqueueing errored packet 443667 at time 14218
Additional hops: 277
Set signal latency stall time: 16
Reenqueueing errored packet 422800 at time 14352
Additional hops: 290
Set signal latency stall time: 26
Reenqueueing errored packet 430262 at time 14779
Additional hops: 296
Set signal latency stall time: 12
Reenqueueing errored packet 531504 at time 15652
Additional hops: 307
Set signal latency stall time: 22
Reenqueueing errored packet 524610 at time 18440
Additional hops: 316
Set signal latency stall time: 18
Additional hops: 321
Set signal latency stall time: 10
Reenqueueing errored packet 542470 at time 18825
Reenqueueing errored packet 658307 at time 18835
Additional hops: 327
Set signal latency stall time: 12
Reenqueueing errored packet 645905 at time 18976
Class 0:
Packet latency average = 742.501
	minimum = 5
	maximum = 6009
Network latency average = 741.085
	minimum = 5
	maximum = 4319
Slowest packet = 144860
Flit latency average = 741.085
	minimum = 5
	maximum = 4319
Slowest flit = 545499
Fragmentation average = 0
	minimum = 0
	maximum = 0
Injected packet rate average = 0.546188
	minimum = 0.5237 (at node 17)
	maximum = 0.55755 (at node 26)
Accepted packet rate average = 0.505205
	minimum = 0.4948 (at node 36)
	maximum = 0.51545 (at node 39)
Injected flit rate average = 0.546188
	minimum = 0.5237 (at node 17)
	maximum = 0.55755 (at node 26)
Accepted flit rate average= 0.505205
	minimum = 0.4948 (at node 36)
	maximum = 0.51545 (at node 39)
Injected packet length average = 1
Accepted packet length average = 1
Total in-flight flits = 52467 (0 measured)
latency change    = 0.497865
throughput change = 0.00705313
Average latency for class 0 exceeded 500 cycles. Aborting simulation.
Too many sample periods needed to converge
Simulation unstable, ending ...
Total run time 79.6455
