BEGIN Configuration File: examples/ecc_mesh88_config_1_0.400_link_5
// $Id$

// Copyright (c) 2007-2015, Trustees of The Leland Stanford Junior University
// All rights reserved.
//
// Redistribution and use in source and binary forms, with or without
// modification, are permitted provided that the following conditions are met:
//
// Redistributions of source code must retain the above copyright notice, this
// list of conditions and the following disclaimer.
// Redistributions in binary form must reproduce the above copyright notice,
// this list of conditions and the following disclaimer in the documentation
// and/or other materials provided with the distribution.
//
// THIS SOFTWARE IS PROVIDED BY THE COPYRIGHT HOLDERS AND CONTRIBUTORS "AS IS"
// AND ANY EXPRESS OR IMPLIED WARRANTIES, INCLUDING, BUT NOT LIMITED TO, THE
// IMPLIED WARRANTIES OF MERCHANTABILITY AND FITNESS FOR A PARTICULAR PURPOSE
// ARE DISCLAIMED. IN NO EVENT SHALL THE COPYRIGHT OWNER OR CONTRIBUTORS BE
// LIABLE FOR ANY DIRECT, INDIRECT, INCIDENTAL, SPECIAL, EXEMPLARY, OR
// CONSEQUENTIAL DAMAGES (INCLUDING, BUT NOT LIMITED TO, PROCUREMENT OF
// SUBSTITUTE GOODS OR SERVICES; LOSS OF USE, DATA, OR PROFITS; OR BUSINESS
// INTERRUPTION) HOWEVER CAUSED AND ON ANY THEORY OF LIABILITY, WHETHER IN
// CONTRACT, STRICT LIABILITY, OR TORT (INCLUDING NEGLIGENCE OR OTHERWISE)
// ARISING IN ANY WAY OUT OF THE USE OF THIS SOFTWARE, EVEN IF ADVISED OF THE
// POSSIBILITY OF SUCH DAMAGE.

// Dragonfly
//




vc_buf_size = 256;


wait_for_tail_credit = 0;

//
// Router architecture
//
vc_allocator = separable_input_first; 
sw_allocator = separable_input_first;
alloc_iters  = 1;

credit_delay   = 2;
routing_delay  = 0;
vc_alloc_delay = 1;
sw_alloc_delay = 1;
st_final_delay = 1;

input_speedup     = 1;
output_speedup    = 1;
internal_speedup  = 2.0;


warmup_periods = 3;
sim_count          = 1;

sample_period  = 10000;  


routing_function = dor;
num_vcs     = 2;

priority = none;
traffic       = uniform; 

injection_rate = 0.4;
packet_size = 1;
injection_rate_uses_flits = 1;

topology = mesh;

k  = 8;
n  = 2;

fer = 5;
ecc = link;

watch_out=-;
//watch_file = watch.txt;

ecc = link;

stats_out = examples/ecc_mesh88_config_1_0.400_link_5.m;

END Configuration File: examples/ecc_mesh88_config_1_0.400_link_5
1
Received nack credit for flit 5249
Requeued flit 5249
3
Received nack credit for flit 5762
Requeued flit 5762
2
Received nack credit for flit 14655
Requeued flit 14655
7
Received nack credit for flit 29948
Requeued flit 29948
3
Received nack credit for flit 30709
Requeued flit 30709
3
Received nack credit for flit 64137
Requeued flit 64137
5
Received nack credit for flit 109539
Requeued flit 109539
2
Received nack credit for flit 129908
Requeued flit 129908
1
Received nack credit for flit 132796
Requeued flit 132796
8
Received nack credit for flit 133277
Requeued flit 133277
1
Received nack credit for flit 138396
Requeued flit 138396
1
Received nack credit for flit 167339
Requeued flit 167339
3
Received nack credit for flit 168965
Requeued flit 168965
11
Received nack credit for flit 168708
Requeued flit 168708
1
Received nack credit for flit 189299
Requeued flit 189299
3
Received nack credit for flit 200285
Requeued flit 200285
8
Received nack credit for flit 201143
Requeued flit 201143
5
Received nack credit for flit 244049
Requeued flit 244049
2
Received nack credit for flit 245217
Requeued flit 245217
1
Received nack credit for flit 251976
Requeued flit 251976
Class 0:
Packet latency average = 24.0059
	minimum = 5
	maximum = 71
Network latency average = 24.0059
	minimum = 5
	maximum = 71
Slowest packet = 80345
Flit latency average = 24.0059
	minimum = 5
	maximum = 71
Slowest flit = 80345
Fragmentation average = 0
	minimum = 0
	maximum = 0
Injected packet rate average = 0.400462
	minimum = 0.3913 (at node 46)
	maximum = 0.4085 (at node 6)
Accepted packet rate average = 0.399587
	minimum = 0.3882 (at node 52)
	maximum = 0.4129 (at node 28)
Injected flit rate average = 0.400462
	minimum = 0.3913 (at node 46)
	maximum = 0.4085 (at node 6)
Accepted flit rate average= 0.399587
	minimum = 0.3882 (at node 52)
	maximum = 0.4129 (at node 28)
Injected packet length average = 1
Accepted packet length average = 1
Total in-flight flits = 560 (0 measured)
latency change    = 1
throughput change = 1
1
Received nack credit for flit 273983
Requeued flit 273983
3
Received nack credit for flit 279100
Requeued flit 279100
1
Received nack credit for flit 374493
Requeued flit 374493
2
Received nack credit for flit 382900
Requeued flit 382900
4
Received nack credit for flit 387828
Requeued flit 387828
8
Received nack credit for flit 388287
Requeued flit 388287
2
Received nack credit for flit 438287
Requeued flit 438287
6
Received nack credit for flit 439528
Requeued flit 439528
4
Received nack credit for flit 442956
Requeued flit 442956
2
Received nack credit for flit 448734
Requeued flit 448734
2
Received nack credit for flit 472130
Requeued flit 472130
4
Received nack credit for flit 479062
Requeued flit 479062
1
Received nack credit for flit 487460
Requeued flit 487460
Class 0:
Packet latency average = 23.99
	minimum = 5
	maximum = 72
Network latency average = 23.99
	minimum = 5
	maximum = 72
Slowest packet = 328535
Flit latency average = 23.99
	minimum = 5
	maximum = 72
Slowest flit = 328535
Fragmentation average = 0
	minimum = 0
	maximum = 0
Injected packet rate average = 0.400037
	minimum = 0.3947 (at node 55)
	maximum = 0.40935 (at node 33)
Accepted packet rate average = 0.399527
	minimum = 0.3921 (at node 25)
	maximum = 0.41025 (at node 28)
Injected flit rate average = 0.400037
	minimum = 0.3947 (at node 55)
	maximum = 0.40935 (at node 33)
Accepted flit rate average= 0.399527
	minimum = 0.3921 (at node 25)
	maximum = 0.41025 (at node 28)
Injected packet length average = 1
Accepted packet length average = 1
Total in-flight flits = 653 (0 measured)
latency change    = 0.000664112
throughput change = 0.000152524
7
Received nack credit for flit 571668
Requeued flit 571668
4
Received nack credit for flit 596512
Requeued flit 596512
5
Received nack credit for flit 621458
Requeued flit 621458
3
Received nack credit for flit 659053
Requeued flit 659053
6
Received nack credit for flit 685504
Requeued flit 685504
2
Received nack credit for flit 692722
Requeued flit 692722
1
Received nack credit for flit 695161
Requeued flit 695161
2
Received nack credit for flit 729613
Requeued flit 729613
8
Received nack credit for flit 736384
Requeued flit 736384
1
Received nack credit for flit 751595
Requeued flit 751595
Class 0:
Packet latency average = 24.0556
	minimum = 5
	maximum = 76
Network latency average = 24.0556
	minimum = 5
	maximum = 76
Slowest packet = 751246
Flit latency average = 24.0556
	minimum = 5
	maximum = 76
Slowest flit = 751246
Fragmentation average = 0
	minimum = 0
	maximum = 0
Injected packet rate average = 0.400792
	minimum = 0.3904 (at node 13)
	maximum = 0.4128 (at node 14)
Accepted packet rate average = 0.400791
	minimum = 0.3895 (at node 62)
	maximum = 0.4117 (at node 37)
Injected flit rate average = 0.400792
	minimum = 0.3904 (at node 13)
	maximum = 0.4128 (at node 14)
Accepted flit rate average= 0.400791
	minimum = 0.3895 (at node 62)
	maximum = 0.4117 (at node 37)
Injected packet length average = 1
Accepted packet length average = 1
Total in-flight flits = 654 (0 measured)
latency change    = 0.00272885
throughput change = 0.00315392
Warmed up ...Time used is 30000 cycles
1
Received nack credit for flit 799128
Requeued flit 799128
2
Received nack credit for flit 802066
Requeued flit 802066
3
Received nack credit for flit 803619
Requeued flit 803619
3
Received nack credit for flit 818110
Requeued flit 818110
3
Received nack credit for flit 822145
Requeued flit 822145
1
Received nack credit for flit 850556
Requeued flit 850556
1
Received nack credit for flit 866054
Requeued flit 866054
2
Received nack credit for flit 870119
Requeued flit 870119
3
Received nack credit for flit 871650
Requeued flit 871650
3
Received nack credit for flit 909774
Requeued flit 909774
2
Received nack credit for flit 920839
Requeued flit 920839
4
Received nack credit for flit 928096
Requeued flit 928096
4
Received nack credit for flit 932959
Requeued flit 932959
5
Received nack credit for flit 965392
Requeued flit 965392
1
Received nack credit for flit 968196
Requeued flit 968196
Class 0:
Packet latency average = 24.078
	minimum = 5
	maximum = 72
Network latency average = 24.078
	minimum = 5
	maximum = 72
Slowest packet = 937492
Flit latency average = 24.0883
	minimum = 5
	maximum = 72
Slowest flit = 937492
Fragmentation average = 0
	minimum = 0
	maximum = 0
Injected packet rate average = 0.400062
	minimum = 0.3895 (at node 25)
	maximum = 0.408 (at node 12)
Accepted packet rate average = 0.400117
	minimum = 0.38 (at node 6)
	maximum = 0.4145 (at node 63)
Injected flit rate average = 0.400062
	minimum = 0.3895 (at node 25)
	maximum = 0.408 (at node 12)
Accepted flit rate average= 0.400117
	minimum = 0.38 (at node 6)
	maximum = 0.4145 (at node 63)
Injected packet length average = 1
Accepted packet length average = 1
Total in-flight flits = 619 (619 measured)
latency change    = 0.000928183
throughput change = 0.0016831
9
Received nack credit for flit 1024188
Requeued flit 1024188
3
Received nack credit for flit 1064581
Requeued flit 1064581
1
Received nack credit for flit 1090309
Requeued flit 1090309
3
Received nack credit for flit 1120440
Requeued flit 1120440
2
Received nack credit for flit 1139077
Requeued flit 1139077
1
Received nack credit for flit 1148169
Requeued flit 1148169
2
Received nack credit for flit 1185336
Requeued flit 1185336
2
Received nack credit for flit 1185885
Requeued flit 1185885
4
Received nack credit for flit 1202096
Requeued flit 1202096
1
Received nack credit for flit 1202674
Requeued flit 1202674
2
Received nack credit for flit 1210320
Requeued flit 1210320
1
Received nack credit for flit 1221044
Requeued flit 1221044
4
Received nack credit for flit 1234816
Requeued flit 1234816
1
Received nack credit for flit 1237301
Requeued flit 1237301
3
Received nack credit for flit 1238021
Requeued flit 1238021
2
Received nack credit for flit 1240797
Requeued flit 1240797
5
Received nack credit for flit 1252379
Requeued flit 1252379
4
Received nack credit for flit 1252949
Requeued flit 1252949
1
Received nack credit for flit 1266874
Requeued flit 1266874
Class 0:
Packet latency average = 24.069
	minimum = 5
	maximum = 80
Network latency average = 24.069
	minimum = 5
	maximum = 80
Slowest packet = 1262590
Flit latency average = 24.0742
	minimum = 5
	maximum = 80
Slowest flit = 1262590
Fragmentation average = 0
	minimum = 0
	maximum = 0
Injected packet rate average = 0.400302
	minimum = 0.38995 (at node 35)
	maximum = 0.4058 (at node 48)
Accepted packet rate average = 0.400348
	minimum = 0.3918 (at node 18)
	maximum = 0.4093 (at node 31)
Injected flit rate average = 0.400302
	minimum = 0.38995 (at node 35)
	maximum = 0.4058 (at node 48)
Accepted flit rate average= 0.400348
	minimum = 0.3918 (at node 18)
	maximum = 0.4093 (at node 31)
Injected packet length average = 1
Accepted packet length average = 1
Total in-flight flits = 595 (595 measured)
latency change    = 0.000371403
throughput change = 0.000577622
1
Received nack credit for flit 1292976
Requeued flit 1292976
8
Received nack credit for flit 1320921
Requeued flit 1320921
2
Received nack credit for flit 1337772
Requeued flit 1337772
1
Received nack credit for flit 1366672
Requeued flit 1366672
3
Received nack credit for flit 1368712
Requeued flit 1368712
2
Received nack credit for flit 1379895
Requeued flit 1379895
3
Received nack credit for flit 1394495
Requeued flit 1394495
1
Received nack credit for flit 1395599
Requeued flit 1395599
8
Received nack credit for flit 1407133
Requeued flit 1407133
3
Received nack credit for flit 1431927
Requeued flit 1431927
1
Received nack credit for flit 1460047
Requeued flit 1460047
2
Received nack credit for flit 1467194
Requeued flit 1467194
1
Received nack credit for flit 1479745
Requeued flit 1479745
1
Received nack credit for flit 1480696
Requeued flit 1480696
5
Received nack credit for flit 1508120
Requeued flit 1508120
1
Received nack credit for flit 1513866
Requeued flit 1513866
5
Received nack credit for flit 1520151
Requeued flit 1520151
2
Received nack credit for flit 1525767
Requeued flit 1525767
1
Received nack credit for flit 1528193
Requeued flit 1528193
Class 0:
Packet latency average = 24.0498
	minimum = 5
	maximum = 80
Network latency average = 24.0498
	minimum = 5
	maximum = 80
Slowest packet = 1262590
Flit latency average = 24.0533
	minimum = 5
	maximum = 80
Slowest flit = 1262590
Fragmentation average = 0
	minimum = 0
	maximum = 0
Injected packet rate average = 0.40009
	minimum = 0.392667 (at node 23)
	maximum = 0.4054 (at node 9)
Accepted packet rate average = 0.4001
	minimum = 0.3926 (at node 18)
	maximum = 0.406933 (at node 31)
Injected flit rate average = 0.40009
	minimum = 0.392667 (at node 23)
	maximum = 0.4054 (at node 9)
Accepted flit rate average= 0.4001
	minimum = 0.3926 (at node 18)
	maximum = 0.406933 (at node 31)
Injected packet length average = 1
Accepted packet length average = 1
Total in-flight flits = 635 (635 measured)
latency change    = 0.000800209
throughput change = 0.000620939
Draining all recorded packets ...
Draining remaining packets ...
Time taken is 60112 cycles
====== Overall Traffic Statistics ======
====== Traffic class 0 ======
Packet latency average = 24.0545 (1 samples)
	minimum = 5 (1 samples)
	maximum = 80 (1 samples)
Network latency average = 24.0545 (1 samples)
	minimum = 5 (1 samples)
	maximum = 80 (1 samples)
Flit latency average = 24.0595 (1 samples)
	minimum = 5 (1 samples)
	maximum = 80 (1 samples)
Fragmentation average = 0 (1 samples)
	minimum = 0 (1 samples)
	maximum = 0 (1 samples)
Injected packet rate average = 0.40009 (1 samples)
	minimum = 0.392667 (1 samples)
	maximum = 0.4054 (1 samples)
Accepted packet rate average = 0.4001 (1 samples)
	minimum = 0.3926 (1 samples)
	maximum = 0.406933 (1 samples)
Injected flit rate average = 0.40009 (1 samples)
	minimum = 0.392667 (1 samples)
	maximum = 0.4054 (1 samples)
Accepted flit rate average = 0.4001 (1 samples)
	minimum = 0.3926 (1 samples)
	maximum = 0.406933 (1 samples)
Injected packet size average = 1 (1 samples)
Accepted packet size average = 1 (1 samples)
Hops average = 6.25256 (1 samples)
Total run time 117.926
