BEGIN Configuration File: examples/ecc_mesh88_config_1_0.950_link_2
// $Id$

// Copyright (c) 2007-2015, Trustees of The Leland Stanford Junior University
// All rights reserved.
//
// Redistribution and use in source and binary forms, with or without
// modification, are permitted provided that the following conditions are met:
//
// Redistributions of source code must retain the above copyright notice, this
// list of conditions and the following disclaimer.
// Redistributions in binary form must reproduce the above copyright notice,
// this list of conditions and the following disclaimer in the documentation
// and/or other materials provided with the distribution.
//
// THIS SOFTWARE IS PROVIDED BY THE COPYRIGHT HOLDERS AND CONTRIBUTORS "AS IS"
// AND ANY EXPRESS OR IMPLIED WARRANTIES, INCLUDING, BUT NOT LIMITED TO, THE
// IMPLIED WARRANTIES OF MERCHANTABILITY AND FITNESS FOR A PARTICULAR PURPOSE
// ARE DISCLAIMED. IN NO EVENT SHALL THE COPYRIGHT OWNER OR CONTRIBUTORS BE
// LIABLE FOR ANY DIRECT, INDIRECT, INCIDENTAL, SPECIAL, EXEMPLARY, OR
// CONSEQUENTIAL DAMAGES (INCLUDING, BUT NOT LIMITED TO, PROCUREMENT OF
// SUBSTITUTE GOODS OR SERVICES; LOSS OF USE, DATA, OR PROFITS; OR BUSINESS
// INTERRUPTION) HOWEVER CAUSED AND ON ANY THEORY OF LIABILITY, WHETHER IN
// CONTRACT, STRICT LIABILITY, OR TORT (INCLUDING NEGLIGENCE OR OTHERWISE)
// ARISING IN ANY WAY OUT OF THE USE OF THIS SOFTWARE, EVEN IF ADVISED OF THE
// POSSIBILITY OF SUCH DAMAGE.

// Dragonfly
//




vc_buf_size = 256;


wait_for_tail_credit = 0;

//
// Router architecture
//
vc_allocator = separable_input_first; 
sw_allocator = separable_input_first;
alloc_iters  = 1;

credit_delay   = 2;
routing_delay  = 0;
vc_alloc_delay = 1;
sw_alloc_delay = 1;
st_final_delay = 1;

input_speedup     = 1;
output_speedup    = 1;
internal_speedup  = 2.0;


warmup_periods = 3;
sim_count          = 1;

sample_period  = 10000;  


routing_function = dor;
num_vcs     = 2;

priority = none;
traffic       = uniform; 

injection_rate = 0.95;
packet_size = 1;
injection_rate_uses_flits = 1;

topology = mesh;

k  = 8;
n  = 2;

fer = 2;
ecc = link;

watch_out=-;
//watch_file = watch.txt;

ecc = link;

stats_out = examples/ecc_mesh88_config_1_0.950_link_2.m;

END Configuration File: examples/ecc_mesh88_config_1_0.950_link_2
1
1
2
1
1
1
1
1
2
Received nack credit for flit 132
Requeued flit 132
1
2
1
Received nack credit for flit 3
Requeued flit 3
Received nack credit for flit 89
Requeued flit 89
Received nack credit for flit 250
Requeued flit 250
Received nack credit for flit 317
Requeued flit 317
Received nack credit for flit 197
Requeued flit 197
2
Received nack credit for flit 241
Requeued flit 241
1
1
Received nack credit for flit 178
Requeued flit 178
2
1
Received nack credit for flit 375
Requeued flit 375
Received nack credit for flit 464
Requeued flit 464
Received nack credit for flit 484
Requeued flit 484
3
1
4
1
4
1
Received nack credit for flit 539
Requeued flit 539
6
2
Received nack credit for flit 564
Requeued flit 564
Received nack credit for flit 335
Requeued flit 335
Received nack credit for flit 470
Requeued flit 470
2
3
Received nack credit for flit 206
Requeued flit 206
Received nack credit for flit 780
Requeued flit 780
3
1
6
Received nack credit for flit 768
Requeued flit 768
3
2
3
Received nack credit for flit 249
Requeued flit 249
Received nack credit for flit 137
Requeued flit 137
Received nack credit for flit 663
Requeued flit 663
5
1
1
Received nack credit for flit 698
Requeued flit 698
Received nack credit for flit 911
Requeued flit 911
Received nack credit for flit 739
Requeued flit 739
3
1
2
Received nack credit for flit 494
Requeued flit 494
Received nack credit for flit 33
Requeued flit 33
Received nack credit for flit 554
Requeued flit 554
2
3
2
1
Received nack credit for flit 118
Requeued flit 118
6
1
5
Received nack credit for flit 577
Requeued flit 577
Received nack credit for flit 660
Requeued flit 660
Received nack credit for flit 1141
Requeued flit 1141
Received nack credit for flit 1025
Requeued flit 1025
1
4
6
Received nack credit for flit 191
Requeued flit 191
1
3
2
6
Received nack credit for flit 1292
Requeued flit 1292
Received nack credit for flit 709
Requeued flit 709
Received nack credit for flit 672
Requeued flit 672
1
1
1
1
Received nack credit for flit 825
Requeued flit 825
Received nack credit for flit 785
Requeued flit 785
Received nack credit for flit 1211
Requeued flit 1211
Received nack credit for flit 1156
Requeued flit 1156
1
1
6
1
Received nack credit for flit 567
Requeued flit 567
Received nack credit for flit 1128
Requeued flit 1128
Received nack credit for flit 1197
Requeued flit 1197
Received nack credit for flit 1407
Requeued flit 1407
3
Received nack credit for flit 605
Requeued flit 605
1
1
Received nack credit for flit 1535
Requeued flit 1535
Received nack credit for flit 405
Requeued flit 405
Received nack credit for flit 1079
Requeued flit 1079
Received nack credit for flit 761
Requeued flit 761
Received nack credit for flit 712
Requeued flit 712
1
3
Received nack credit for flit 1437
Requeued flit 1437
Received nack credit for flit 289
Requeued flit 289
Received nack credit for flit 1647
Requeued flit 1647
2
4
2
1
Received nack credit for flit 1596
Requeued flit 1596
Received nack credit for flit 1476
Requeued flit 1476
Received nack credit for flit 385
Requeued flit 385
Received nack credit for flit 1405
Requeued flit 1405
3
1
2
8
Received nack credit for flit 1611
Requeued flit 1611
Received nack credit for flit 1104
Requeued flit 1104
Received nack credit for flit 1677
Requeued flit 1677
2
Received nack credit for flit 1597
Requeued flit 1597
Received nack credit for flit 498
Requeued flit 498
Received nack credit for flit 1453
Requeued flit 1453
Received nack credit for flit 1216
Requeued flit 1216
3
1
Received nack credit for flit 911
Requeued flit 911
2
5
Received nack credit for flit 1787
Requeued flit 1787
Received nack credit for flit 1228
Requeued flit 1228
Received nack credit for flit 813
Requeued flit 813
Received nack credit for flit 1448
Requeued flit 1448
6
3
1
Received nack credit for flit 1986
Requeued flit 1986
Received nack credit for flit 955
Requeued flit 955
Received nack credit for flit 1279
Requeued flit 1279
6
4
Received nack credit for flit 1260
Requeued flit 1260
6
5
1
Received nack credit for flit 775
Requeued flit 775
Received nack credit for flit 258
Requeued flit 258
1
Received nack credit for flit 1164
Requeued flit 1164
Received nack credit for flit 1696
Requeued flit 1696
Received nack credit for flit 550
Requeued flit 550
Received nack credit for flit 2019
Requeued flit 2019
1
1
2
Received nack credit for flit 509
Requeued flit 509
Received nack credit for flit 716
Requeued flit 716
6
1
Received nack credit for flit 2082
Requeued flit 2082
1
1
1
2
Received nack credit for flit 370
Requeued flit 370
Received nack credit for flit 533
Requeued flit 533
Received nack credit for flit 2354
Requeued flit 2354
1
5
2
1
5
Received nack credit for flit 132
Requeued flit 132
Received nack credit for flit 760
Requeued flit 760
Received nack credit for flit 1738
Requeued flit 1738
Received nack credit for flit 1685
Requeued flit 1685
Received nack credit for flit 2305
Requeued flit 2305
Received nack credit for flit 2451
Requeued flit 2451
4
Received nack credit for flit 783
Requeued flit 783
Received nack credit for flit 2544
Requeued flit 2544
1
1
1
2
Received nack credit for flit 2596
Requeued flit 2596
Received nack credit for flit 2608
Requeued flit 2608
Received nack credit for flit 1336
Requeued flit 1336
1
3
2
Received nack credit for flit 2588
Requeued flit 2588
Received nack credit for flit 996
Requeued flit 996
Received nack credit for flit 2656
Requeued flit 2656
Received nack credit for flit 1143
Requeued flit 1143
6
3
1
3
Received nack credit for flit 1539
Requeued flit 1539
3
1
Received nack credit for flit 2817
Requeued flit 2817
Received nack credit for flit 2103
Requeued flit 2103
Received nack credit for flit 2835
Requeued flit 2835
Received nack credit for flit 2428
Requeued flit 2428
Received nack credit for flit 1717
Requeued flit 1717
5
2
Received nack credit for flit 2904
Requeued flit 2904
Received nack credit for flit 1881
Requeued flit 1881
Received nack credit for flit 2733
Requeued flit 2733
6
3
3
1
Received nack credit for flit 2095
Requeued flit 2095
Received nack credit for flit 1264
Requeued flit 1264
Received nack credit for flit 2234
Requeued flit 2234
Received nack credit for flit 2898
Requeued flit 2898
Received nack credit for flit 1274
Requeued flit 1274
3
3
Received nack credit for flit 1682
Requeued flit 1682
Received nack credit for flit 2143
Requeued flit 2143
1
Received nack credit for flit 1470
Requeued flit 1470
2
Received nack credit for flit 1889
Requeued flit 1889
Received nack credit for flit 2674
Requeued flit 2674
Received nack credit for flit 2503
Requeued flit 2503
Received nack credit for flit 2565
Requeued flit 2565
3
1
Received nack credit for flit 2013
Requeued flit 2013
Received nack credit for flit 1734
Requeued flit 1734
Received nack credit for flit 2410
Requeued flit 2410
Received nack credit for flit 2295
Requeued flit 2295
Received nack credit for flit 2909
Requeued flit 2909
1
1
3
2
6
1
2
2
Received nack credit for flit 1000
Requeued flit 1000
Received nack credit for flit 3371
Requeued flit 3371
8
2
5
1
2
1
4
1
Received nack credit for flit 3143
Requeued flit 3143
Received nack credit for flit 1599
Requeued flit 1599
Received nack credit for flit 1562
Requeued flit 1562
Received nack credit for flit 3509
Requeued flit 3509
Received nack credit for flit 2447
Requeued flit 2447
Received nack credit for flit 3462
Requeued flit 3462
1
4
Received nack credit for flit 3720
Requeued flit 3720
2
Received nack credit for flit 565
Requeued flit 565
Received nack credit for flit 2448
Requeued flit 2448
6
2
Received nack credit for flit 3798
Requeued flit 3798
6
1
6
10
Received nack credit for flit 1909
Requeued flit 1909
Received nack credit for flit 3981
Requeued flit 3981
Received nack credit for flit 3649
Requeued flit 3649
1
2
Received nack credit for flit 4029
Requeued flit 4029
1
7
2
1
Received nack credit for flit 1905
Requeued flit 1905
Received nack credit for flit 3571
Requeued flit 3571
Received nack credit for flit 4012
Requeued flit 4012
5
2
1
3
Received nack credit for flit 2607
Requeued flit 2607
1
3
3
4
1
Received nack credit for flit 1009
Requeued flit 1009
Received nack credit for flit 1233
Requeued flit 1233
Received nack credit for flit 2510
Requeued flit 2510
Received nack credit for flit 447
Requeued flit 447
Received nack credit for flit 3823
Requeued flit 3823
Received nack credit for flit 3116
Requeued flit 3116
Received nack credit for flit 2824
Requeued flit 2824
6
4
1
4
1
Received nack credit for flit 4076
Requeued flit 4076
2
1
5
4
Received nack credit for flit 3064
Requeued flit 3064
Received nack credit for flit 2168
Requeued flit 2168
Received nack credit for flit 1056
Requeued flit 1056
Received nack credit for flit 4120
Requeued flit 4120
Received nack credit for flit 4015
Requeued flit 4015
Received nack credit for flit 1836
Requeued flit 1836
1
2
4
1
Received nack credit for flit 4445
Requeued flit 4445
Received nack credit for flit 3839
Requeued flit 3839
Received nack credit for flit 2936
Requeued flit 2936
Received nack credit for flit 2387
Requeued flit 2387
Received nack credit for flit 4226
Requeued flit 4226
Received nack credit for flit 2413
Requeued flit 2413
3
Received nack credit for flit 4483
Requeued flit 4483
4
1
Received nack credit for flit 1440
Requeued flit 1440
Received nack credit for flit 4605
Requeued flit 4605
Received nack credit for flit 4628
Requeued flit 4628
1
Received nack credit for flit 3060
Requeued flit 3060
Received nack credit for flit 1017
Requeued flit 1017
Received nack credit for flit 4419
Requeued flit 4419
Received nack credit for flit 1831
Requeued flit 1831
5
Received nack credit for flit 1792
Requeued flit 1792
Received nack credit for flit 4468
Requeued flit 4468
Received nack credit for flit 3329
Requeued flit 3329
Received nack credit for flit 4497
Requeued flit 4497
1
Received nack credit for flit 3016
Requeued flit 3016
2
3
Received nack credit for flit 2702
Requeued flit 2702
Received nack credit for flit 3471
Requeued flit 3471
1
3
Received nack credit for flit 4570
Requeued flit 4570
Received nack credit for flit 1998
Requeued flit 1998
3
1
Received nack credit for flit 2703
Requeued flit 2703
4
6
1
3
3
Received nack credit for flit 4120
Requeued flit 4120
3
1
Received nack credit for flit 2459
Requeued flit 2459
Received nack credit for flit 1747
Requeued flit 1747
1
1
1
Received nack credit for flit 4899
Requeued flit 4899
5
1
1
3
Received nack credit for flit 2525
Requeued flit 2525
7
4
1
6
Received nack credit for flit 4410
Requeued flit 4410
Received nack credit for flit 2510
Requeued flit 2510
Received nack credit for flit 3462
Requeued flit 3462
Received nack credit for flit 1279
Requeued flit 1279
1
4
1
7
6
Received nack credit for flit 5272
Requeued flit 5272
Received nack credit for flit 3222
Requeued flit 3222
Received nack credit for flit 5229
Requeued flit 5229
1
1
1
Received nack credit for flit 1657
Requeued flit 1657
Received nack credit for flit 1809
Requeued flit 1809
Received nack credit for flit 4378
Requeued flit 4378
Received nack credit for flit 4807
Requeued flit 4807
Received nack credit for flit 4210
Requeued flit 4210
Received nack credit for flit 5420
Requeued flit 5420
1
Received nack credit for flit 2518
Requeued flit 2518
Received nack credit for flit 3413
Requeued flit 3413
Received nack credit for flit 5496
Requeued flit 5496
Received nack credit for flit 2753
Requeued flit 2753
Received nack credit for flit 5477
Requeued flit 5477
2
1
4
1
Received nack credit for flit 4086
Requeued flit 4086
Received nack credit for flit 2695
Requeued flit 2695
Received nack credit for flit 4893
Requeued flit 4893
Received nack credit for flit 2730
Requeued flit 2730
Received nack credit for flit 2457
Requeued flit 2457
Received nack credit for flit 2992
Requeued flit 2992
1
1
Received nack credit for flit 5626
Requeued flit 5626
Received nack credit for flit 4923
Requeued flit 4923
1
3
Received nack credit for flit 5641
Requeued flit 5641
6
Received nack credit for flit 4500
Requeued flit 4500
Received nack credit for flit 3059
Requeued flit 3059
Received nack credit for flit 3606
Requeued flit 3606
Received nack credit for flit 5755
Requeued flit 5755
Received nack credit for flit 5768
Requeued flit 5768
Received nack credit for flit 5844
Requeued flit 5844
5
1
Received nack credit for flit 4601
Requeued flit 4601
Received nack credit for flit 4133
Requeued flit 4133
6
1
Received nack credit for flit 4947
Requeued flit 4947
Received nack credit for flit 4748
Requeued flit 4748
1
4
4
2
1
5
2
1
1
Received nack credit for flit 4124
Requeued flit 4124
Received nack credit for flit 1503
Requeued flit 1503
Received nack credit for flit 2156
Requeued flit 2156
Received nack credit for flit 6130
Requeued flit 6130
7
1
4
1
1
1
Received nack credit for flit 6216
Requeued flit 6216
Received nack credit for flit 4022
Requeued flit 4022
Received nack credit for flit 2566
Requeued flit 2566
Received nack credit for flit 6195
Requeued flit 6195
3
2
1
4
2
8
Received nack credit for flit 4168
Requeued flit 4168
Received nack credit for flit 4556
Requeued flit 4556
1
4
6
1
3
Received nack credit for flit 2269
Requeued flit 2269
Received nack credit for flit 3517
Requeued flit 3517
Received nack credit for flit 4308
Requeued flit 4308
Received nack credit for flit 6434
Requeued flit 6434
1
2
5
2
1
1
Received nack credit for flit 5621
Requeued flit 5621
Received nack credit for flit 2918
Requeued flit 2918
Received nack credit for flit 2433
Requeued flit 2433
Received nack credit for flit 4680
Requeued flit 4680
Received nack credit for flit 4499
Requeued flit 4499
Received nack credit for flit 4503
Requeued flit 4503
1
1
Received nack credit for flit 3136
Requeued flit 3136
Received nack credit for flit 4907
Requeued flit 4907
Received nack credit for flit 3151
Requeued flit 3151
Received nack credit for flit 2034
Requeued flit 2034
Received nack credit for flit 4077
Requeued flit 4077
1
3
1
6
3
1
3
Received nack credit for flit 4693
Requeued flit 4693
Received nack credit for flit 4457
Requeued flit 4457
Received nack credit for flit 2346
Requeued flit 2346
Received nack credit for flit 1962
Requeued flit 1962
1
1
3
Received nack credit for flit 6210
Requeued flit 6210
Received nack credit for flit 6204
Requeued flit 6204
Received nack credit for flit 4271
Requeued flit 4271
Received nack credit for flit 5271
Requeued flit 5271
Received nack credit for flit 4367
Requeued flit 4367
Received nack credit for flit 6740
Requeued flit 6740
1
Received nack credit for flit 5683
Requeued flit 5683
Received nack credit for flit 5221
Requeued flit 5221
Received nack credit for flit 4492
Requeued flit 4492
Received nack credit for flit 6816
Requeued flit 6816
1
1
Received nack credit for flit 6885
Requeued flit 6885
Received nack credit for flit 3285
Requeued flit 3285
Received nack credit for flit 4486
Requeued flit 4486
Received nack credit for flit 5887
Requeued flit 5887
2
Received nack credit for flit 5486
Requeued flit 5486
Received nack credit for flit 3537
Requeued flit 3537
Received nack credit for flit 6877
Requeued flit 6877
Received nack credit for flit 6456
Requeued flit 6456
Received nack credit for flit 4803
Requeued flit 4803
3
Received nack credit for flit 6978
Requeued flit 6978
Received nack credit for flit 6315
Requeued flit 6315
1
6
8
1
7
4
Received nack credit for flit 6993
Requeued flit 6993
Received nack credit for flit 7135
Requeued flit 7135
3
1
1
1
Received nack credit for flit 4675
Requeued flit 4675
11
Received nack credit for flit 3628
Requeued flit 3628
7
6
3
Received nack credit for flit 1420
Requeued flit 1420
1
Received nack credit for flit 6759
Requeued flit 6759
Received nack credit for flit 7360
Requeued flit 7360
Received nack credit for flit 5104
Requeued flit 5104
Received nack credit for flit 5186
Requeued flit 5186
Received nack credit for flit 2868
Requeued flit 2868
Received nack credit for flit 5207
Requeued flit 5207
Received nack credit for flit 5051
Requeued flit 5051
Received nack credit for flit 7074
Requeued flit 7074
Received nack credit for flit 1168
Requeued flit 1168
7
4
Received nack credit for flit 7417
Requeued flit 7417
Received nack credit for flit 3399
Requeued flit 3399
Received nack credit for flit 1960
Requeued flit 1960
1
Received nack credit for flit 7221
Requeued flit 7221
1
3
1
3
1
Received nack credit for flit 2592
Requeued flit 2592
3
4
1
1
1
1
1
Received nack credit for flit 2461
Requeued flit 2461
Received nack credit for flit 2765
Requeued flit 2765
5
1
Received nack credit for flit 7715
Requeued flit 7715
Received nack credit for flit 7785
Requeued flit 7785
Received nack credit for flit 4097
Requeued flit 4097
Received nack credit for flit 7923
Requeued flit 7923
Received nack credit for flit 4620
Requeued flit 4620
Received nack credit for flit 7936
Requeued flit 7936
1
2
9
5
Received nack credit for flit 3854
Requeued flit 3854
1
1
1
Received nack credit for flit 8022
Requeued flit 8022
Received nack credit for flit 6108
Requeued flit 6108
Received nack credit for flit 7686
Requeued flit 7686
Received nack credit for flit 5348
Requeued flit 5348
Received nack credit for flit 3802
Requeued flit 3802
Received nack credit for flit 3696
Requeued flit 3696
1
1
1
1
1
Received nack credit for flit 8174
Requeued flit 8174
1
1
5
2
1
4
1
Received nack credit for flit 8151
Requeued flit 8151
Received nack credit for flit 2762
Requeued flit 2762
Received nack credit for flit 7274
Requeued flit 7274
Received nack credit for flit 5873
Requeued flit 5873
Received nack credit for flit 5523
Requeued flit 5523
Received nack credit for flit 5712
Requeued flit 5712
3
3
7
1
Received nack credit for flit 8391
Requeued flit 8391
Received nack credit for flit 5150
Requeued flit 5150
1
3
Received nack credit for flit 8385
Requeued flit 8385
Received nack credit for flit 8328
Requeued flit 8328
Received nack credit for flit 7117
Requeued flit 7117
Received nack credit for flit 5691
Requeued flit 5691
Received nack credit for flit 3159
Requeued flit 3159
Received nack credit for flit 6003
Requeued flit 6003
Received nack credit for flit 5771
Requeued flit 5771
1
1
Received nack credit for flit 8414
Requeued flit 8414
Received nack credit for flit 8478
Requeued flit 8478
Received nack credit for flit 3696
Requeued flit 3696
1
3
2
2
1
Received nack credit for flit 6033
Requeued flit 6033
Received nack credit for flit 5199
Requeued flit 5199
Received nack credit for flit 1757
Requeued flit 1757
5
1
3
1
Received nack credit for flit 6297
Requeued flit 6297
1
Received nack credit for flit 4074
Requeued flit 4074
2
Received nack credit for flit 6269
Requeued flit 6269
Received nack credit for flit 8111
Requeued flit 8111
Received nack credit for flit 8777
Requeued flit 8777
Received nack credit for flit 6608
Requeued flit 6608
2
6
1
Received nack credit for flit 6460
Requeued flit 6460
Received nack credit for flit 8828
Requeued flit 8828
Received nack credit for flit 5991
Requeued flit 5991
Received nack credit for flit 8716
Requeued flit 8716
Received nack credit for flit 6310
Requeued flit 6310
1
3
1
Received nack credit for flit 6555
Requeued flit 6555
Received nack credit for flit 6480
Requeued flit 6480
2
5
1
2
5
5
1
1
Received nack credit for flit 6188
Requeued flit 6188
5
1
Received nack credit for flit 4140
Requeued flit 4140
Received nack credit for flit 2590
Requeued flit 2590
Received nack credit for flit 6059
Requeued flit 6059
3
1
Received nack credit for flit 9051
Requeued flit 9051
Received nack credit for flit 6329
Requeued flit 6329
Received nack credit for flit 6537
Requeued flit 6537
2
5
3
Received nack credit for flit 4282
Requeued flit 4282
Received nack credit for flit 8970
Requeued flit 8970
3
1
1
Received nack credit for flit 3078
Requeued flit 3078
Received nack credit for flit 9272
Requeued flit 9272
Received nack credit for flit 9339
Requeued flit 9339
1
Received nack credit for flit 2817
Requeued flit 2817
Received nack credit for flit 4704
Requeued flit 4704
Received nack credit for flit 9266
Requeued flit 9266
Received nack credit for flit 6559
Requeued flit 6559
Received nack credit for flit 9386
Requeued flit 9386
3
1
Received nack credit for flit 4938
Requeued flit 4938
Received nack credit for flit 5789
Requeued flit 5789
Received nack credit for flit 4533
Requeued flit 4533
2
2
3
Received nack credit for flit 3415
Requeued flit 3415
Received nack credit for flit 6511
Requeued flit 6511
Received nack credit for flit 9561
Requeued flit 9561
Received nack credit for flit 7830
Requeued flit 7830
Received nack credit for flit 4994
Requeued flit 4994
Received nack credit for flit 6984
Requeued flit 6984
1
4
4
5
1
1
6
Received nack credit for flit 8261
Requeued flit 8261
Received nack credit for flit 7650
Requeued flit 7650
7
6
Received nack credit for flit 8577
Requeued flit 8577
Received nack credit for flit 7993
Requeued flit 7993
3
Received nack credit for flit 6729
Requeued flit 6729
1
6
3
5
1
Received nack credit for flit 6815
Requeued flit 6815
Received nack credit for flit 6631
Requeued flit 6631
Received nack credit for flit 5023
Requeued flit 5023
Received nack credit for flit 9963
Requeued flit 9963
Received nack credit for flit 9663
Requeued flit 9663
10
6
Received nack credit for flit 5778
Requeued flit 5778
1
1
2
2
Received nack credit for flit 4749
Requeued flit 4749
Received nack credit for flit 2357
Requeued flit 2357
Received nack credit for flit 4713
Requeued flit 4713
4
Received nack credit for flit 7166
Requeued flit 7166
Received nack credit for flit 4568
Requeued flit 4568
Received nack credit for flit 6516
Requeued flit 6516
Received nack credit for flit 3033
Requeued flit 3033
Received nack credit for flit 10211
Requeued flit 10211
5
3
1
Received nack credit for flit 2340
Requeued flit 2340
Received nack credit for flit 2980
Requeued flit 2980
Received nack credit for flit 7656
Requeued flit 7656
Received nack credit for flit 9984
Requeued flit 9984
Received nack credit for flit 10174
Requeued flit 10174
Received nack credit for flit 8893
Requeued flit 8893
1
4
1
1
6
1
1
Received nack credit for flit 3487
Requeued flit 3487
Received nack credit for flit 4958
Requeued flit 4958
Received nack credit for flit 8780
Requeued flit 8780
4
1
8
Received nack credit for flit 9582
Requeued flit 9582
Received nack credit for flit 7027
Requeued flit 7027
3
1
Received nack credit for flit 3541
Requeued flit 3541
Received nack credit for flit 8110
Requeued flit 8110
Received nack credit for flit 8311
Requeued flit 8311
2
Received nack credit for flit 7717
Requeued flit 7717
4
2
1
8
3
Received nack credit for flit 6729
Requeued flit 6729
2
3
1
Received nack credit for flit 5857
Requeued flit 5857
Received nack credit for flit 9706
Requeued flit 9706
1
4
1
Received nack credit for flit 7777
Requeued flit 7777
Received nack credit for flit 9759
Requeued flit 9759
2
1
1
Received nack credit for flit 7211
Requeued flit 7211
1
Received nack credit for flit 7731
Requeued flit 7731
Received nack credit for flit 7695
Requeued flit 7695
Received nack credit for flit 5246
Requeued flit 5246
2
2
Received nack credit for flit 6455
Requeued flit 6455
Received nack credit for flit 8411
Requeued flit 8411
Received nack credit for flit 8356
Requeued flit 8356
Received nack credit for flit 9535
Requeued flit 9535
Received nack credit for flit 11066
Requeued flit 11066
1
Received nack credit for flit 11134
Requeued flit 11134
Received nack credit for flit 4430
Requeued flit 4430
Received nack credit for flit 7825
Requeued flit 7825
1
Received nack credit for flit 10006
Requeued flit 10006
Received nack credit for flit 7651
Requeued flit 7651
2
Received nack credit for flit 8055
Requeued flit 8055
Received nack credit for flit 11230
Requeued flit 11230
3
1
10
3
2
Received nack credit for flit 11142
Requeued flit 11142
Received nack credit for flit 8165
Requeued flit 8165
1
4
4
2
Received nack credit for flit 7468
Requeued flit 7468
Received nack credit for flit 11401
Requeued flit 11401
1
5
3
1
Received nack credit for flit 5616
Requeued flit 5616
4
6
2
2
Received nack credit for flit 8243
Requeued flit 8243
Received nack credit for flit 7880
Requeued flit 7880
1
Received nack credit for flit 2461
Requeued flit 2461
Received nack credit for flit 5567
Requeued flit 5567
Received nack credit for flit 8298
Requeued flit 8298
2
4
10
Received nack credit for flit 11255
Requeued flit 11255
Received nack credit for flit 7345
Requeued flit 7345
1
2
11
1
6
Received nack credit for flit 8347
Requeued flit 8347
Received nack credit for flit 7710
Requeued flit 7710
Received nack credit for flit 10732
Requeued flit 10732
Received nack credit for flit 11536
Requeued flit 11536
Received nack credit for flit 8015
Requeued flit 8015
Received nack credit for flit 7917
Requeued flit 7917
Received nack credit for flit 3566
Requeued flit 3566
Received nack credit for flit 10294
Requeued flit 10294
Received nack credit for flit 8075
Requeued flit 8075
5
2
Received nack credit for flit 10266
Requeued flit 10266
1
2
Received nack credit for flit 11877
Requeued flit 11877
Received nack credit for flit 8672
Requeued flit 8672
1
Received nack credit for flit 11154
Requeued flit 11154
Received nack credit for flit 12025
Requeued flit 12025
3
3
1
2
1
Received nack credit for flit 11560
Requeued flit 11560
Received nack credit for flit 2275
Requeued flit 2275
Received nack credit for flit 5743
Requeued flit 5743
4
1
1
1
Received nack credit for flit 11981
Requeued flit 11981
Received nack credit for flit 3410
Requeued flit 3410
Received nack credit for flit 4457
Requeued flit 4457
2
1
2
Received nack credit for flit 12215
Requeued flit 12215
Received nack credit for flit 8206
Requeued flit 8206
1
2
Received nack credit for flit 12168
Requeued flit 12168
Received nack credit for flit 11217
Requeued flit 11217
2
2
Received nack credit for flit 5115
Requeued flit 5115
Received nack credit for flit 6219
Requeued flit 6219
Received nack credit for flit 9512
Requeued flit 9512
Received nack credit for flit 8539
Requeued flit 8539
3
Received nack credit for flit 10286
Requeued flit 10286
Received nack credit for flit 8549
Requeued flit 8549
Received nack credit for flit 12334
Requeued flit 12334
Received nack credit for flit 12396
Requeued flit 12396
1
5
Received nack credit for flit 6998
Requeued flit 6998
Received nack credit for flit 9505
Requeued flit 9505
Received nack credit for flit 7931
Requeued flit 7931
Received nack credit for flit 8804
Requeued flit 8804
8
1
6
Received nack credit for flit 8960
Requeued flit 8960
Received nack credit for flit 8787
Requeued flit 8787
6
1
1
1
3
Received nack credit for flit 8516
Requeued flit 8516
Received nack credit for flit 9291
Requeued flit 9291
1
1
1
1
3
Received nack credit for flit 8363
Requeued flit 8363
Received nack credit for flit 12168
Requeued flit 12168
Received nack credit for flit 10636
Requeued flit 10636
3
1
1
Received nack credit for flit 9017
Requeued flit 9017
Received nack credit for flit 5334
Requeued flit 5334
Received nack credit for flit 11271
Requeued flit 11271
Received nack credit for flit 12726
Requeued flit 12726
Received nack credit for flit 10741
Requeued flit 10741
1
1
4
8
Received nack credit for flit 5095
Requeued flit 5095
Received nack credit for flit 8834
Requeued flit 8834
Received nack credit for flit 11039
Requeued flit 11039
Received nack credit for flit 12438
Requeued flit 12438
Received nack credit for flit 9209
Requeued flit 9209
Received nack credit for flit 9227
Requeued flit 9227
1
Received nack credit for flit 6013
Requeued flit 6013
Received nack credit for flit 8862
Requeued flit 8862
5
1
5
Received nack credit for flit 8687
Requeued flit 8687
Received nack credit for flit 10385
Requeued flit 10385
1
3
5
Received nack credit for flit 12980
Requeued flit 12980
5
1
1
1
Received nack credit for flit 12411
Requeued flit 12411
Received nack credit for flit 6728
Requeued flit 6728
Received nack credit for flit 4765
Requeued flit 4765
3
3
1
Received nack credit for flit 9669
Requeued flit 9669
Received nack credit for flit 13081
Requeued flit 13081
3
Received nack credit for flit 4514
Requeued flit 4514
Received nack credit for flit 8871
Requeued flit 8871
Received nack credit for flit 13251
Requeued flit 13251
Received nack credit for flit 9117
Requeued flit 9117
9
Received nack credit for flit 3535
Requeued flit 3535
Received nack credit for flit 13211
Requeued flit 13211
Received nack credit for flit 9517
Requeued flit 9517
Received nack credit for flit 9473
Requeued flit 9473
Received nack credit for flit 4498
Requeued flit 4498
1
1
Received nack credit for flit 5195
Requeued flit 5195
Received nack credit for flit 5093
Requeued flit 5093
Received nack credit for flit 9229
Requeued flit 9229
Received nack credit for flit 13309
Requeued flit 13309
8
1
1
Received nack credit for flit 6367
Requeued flit 6367
1
1
4
Received nack credit for flit 5113
Requeued flit 5113
Received nack credit for flit 12065
Requeued flit 12065
Received nack credit for flit 13224
Requeued flit 13224
3
2
3
3
Received nack credit for flit 13578
Requeued flit 13578
Received nack credit for flit 9691
Requeued flit 9691
Received nack credit for flit 13722
Requeued flit 13722
Received nack credit for flit 8141
Requeued flit 8141
Received nack credit for flit 10010
Requeued flit 10010
Received nack credit for flit 5232
Requeued flit 5232
3
8
1
3
4
Received nack credit for flit 6698
Requeued flit 6698
Received nack credit for flit 9735
Requeued flit 9735
8
Received nack credit for flit 6650
Requeued flit 6650
1
8
Received nack credit for flit 12464
Requeued flit 12464
3
5
Received nack credit for flit 9461
Requeued flit 9461
Received nack credit for flit 4132
Requeued flit 4132
3
3
1
3
Received nack credit for flit 14107
Requeued flit 14107
Received nack credit for flit 9007
Requeued flit 9007
Received nack credit for flit 8553
Requeued flit 8553
1
Received nack credit for flit 6325
Requeued flit 6325
Received nack credit for flit 5911
Requeued flit 5911
Received nack credit for flit 14300
Requeued flit 14300
Received nack credit for flit 7446
Requeued flit 7446
1
5
Received nack credit for flit 7658
Requeued flit 7658
Received nack credit for flit 11335
Requeued flit 11335
Received nack credit for flit 5278
Requeued flit 5278
2
2
7
Received nack credit for flit 9741
Requeued flit 9741
Received nack credit for flit 13187
Requeued flit 13187
1
1
3
1
2
2
2
7
Received nack credit for flit 9189
Requeued flit 9189
3
3
3
Received nack credit for flit 10289
Requeued flit 10289
Received nack credit for flit 9636
Requeued flit 9636
Received nack credit for flit 4744
Requeued flit 4744
1
6
4
Received nack credit for flit 10603
Requeued flit 10603
Received nack credit for flit 8709
Requeued flit 8709
Received nack credit for flit 14699
Requeued flit 14699
Received nack credit for flit 14834
Requeued flit 14834
1
4
3
Received nack credit for flit 14778
Requeued flit 14778
Received nack credit for flit 6108
Requeued flit 6108
Received nack credit for flit 13585
Requeued flit 13585
Received nack credit for flit 13118
Requeued flit 13118
2
2
1
1
7
Received nack credit for flit 6079
Requeued flit 6079
8
2
1
1
Received nack credit for flit 5815
Requeued flit 5815
Received nack credit for flit 7275
Requeued flit 7275
1
6
1
1
Received nack credit for flit 4825
Requeued flit 4825
Received nack credit for flit 11160
Requeued flit 11160
Received nack credit for flit 7707
Requeued flit 7707
10
3
Received nack credit for flit 7113
Requeued flit 7113
Received nack credit for flit 12257
Requeued flit 12257
Received nack credit for flit 7097
Requeued flit 7097
1
4
5
1
Received nack credit for flit 15089
Requeued flit 15089
Received nack credit for flit 10710
Requeued flit 10710
Received nack credit for flit 8396
Requeued flit 8396
Received nack credit for flit 6812
Requeued flit 6812
Received nack credit for flit 14499
Requeued flit 14499
1
4
1
Received nack credit for flit 3967
Requeued flit 3967
Received nack credit for flit 12439
Requeued flit 12439
Received nack credit for flit 10865
Requeued flit 10865
Received nack credit for flit 15008
Requeued flit 15008
3
5
1
Received nack credit for flit 7533
Requeued flit 7533
Received nack credit for flit 15175
Requeued flit 15175
Received nack credit for flit 13406
Requeued flit 13406
Received nack credit for flit 15308
Requeued flit 15308
5
5
1
Received nack credit for flit 4388
Requeued flit 4388
Received nack credit for flit 12780
Requeued flit 12780
Received nack credit for flit 15393
Requeued flit 15393
Received nack credit for flit 11925
Requeued flit 11925
Received nack credit for flit 15453
Requeued flit 15453
3
1
1
Received nack credit for flit 10129
Requeued flit 10129
Received nack credit for flit 11528
Requeued flit 11528
Received nack credit for flit 12925
Requeued flit 12925
1
4
4
1
Received nack credit for flit 13501
Requeued flit 13501
Received nack credit for flit 15477
Requeued flit 15477
Received nack credit for flit 15539
Requeued flit 15539
Received nack credit for flit 9280
Requeued flit 9280
5
Received nack credit for flit 11006
Requeued flit 11006
Received nack credit for flit 11171
Requeued flit 11171
2
Received nack credit for flit 11223
Requeued flit 11223
2
1
2
1
2
Received nack credit for flit 6871
Requeued flit 6871
Received nack credit for flit 15718
Requeued flit 15718
Received nack credit for flit 11706
Requeued flit 11706
1
4
Received nack credit for flit 10340
Requeued flit 10340
Received nack credit for flit 5034
Requeued flit 5034
Received nack credit for flit 14407
Requeued flit 14407
3
Received nack credit for flit 15784
Requeued flit 15784
Received nack credit for flit 10392
Requeued flit 10392
1
2
9
1
Received nack credit for flit 15650
Requeued flit 15650
Received nack credit for flit 15396
Requeued flit 15396
Received nack credit for flit 11043
Requeued flit 11043
Received nack credit for flit 14938
Requeued flit 14938
1
2
3
Received nack credit for flit 15522
Requeued flit 15522
Received nack credit for flit 15952
Requeued flit 15952
Received nack credit for flit 6711
Requeued flit 6711
Received nack credit for flit 15966
Requeued flit 15966
2
7
7
4
Received nack credit for flit 12686
Requeued flit 12686
2
2
3
Received nack credit for flit 10989
Requeued flit 10989
Received nack credit for flit 9155
Requeued flit 9155
Received nack credit for flit 4880
Requeued flit 4880
Received nack credit for flit 16237
Requeued flit 16237
1
Received nack credit for flit 10885
Requeued flit 10885
Received nack credit for flit 10853
Requeued flit 10853
2
Received nack credit for flit 11147
Requeued flit 11147
Received nack credit for flit 12177
Requeued flit 12177
Received nack credit for flit 11294
Requeued flit 11294
1
1
1
4
3
Received nack credit for flit 7346
Requeued flit 7346
Received nack credit for flit 5202
Requeued flit 5202
Received nack credit for flit 16167
Requeued flit 16167
Received nack credit for flit 7766
Requeued flit 7766
1
5
4
1
2
2
3
Received nack credit for flit 16496
Requeued flit 16496
3
6
Received nack credit for flit 16300
Requeued flit 16300
6
1
7
Received nack credit for flit 11318
Requeued flit 11318
Received nack credit for flit 11827
Requeued flit 11827
1
2
Received nack credit for flit 16561
Requeued flit 16561
Received nack credit for flit 8702
Requeued flit 8702
Received nack credit for flit 13276
Requeued flit 13276
Received nack credit for flit 5640
Requeued flit 5640
Received nack credit for flit 9476
Requeued flit 9476
Received nack credit for flit 11653
Requeued flit 11653
4
5
1
1
1
Received nack credit for flit 7712
Requeued flit 7712
1
7
Received nack credit for flit 10169
Requeued flit 10169
Received nack credit for flit 5655
Requeued flit 5655
1
Received nack credit for flit 14559
Requeued flit 14559
Received nack credit for flit 6489
Requeued flit 6489
Received nack credit for flit 5188
Requeued flit 5188
Received nack credit for flit 16581
Requeued flit 16581
Received nack credit for flit 16477
Requeued flit 16477
4
6
3
1
5
2
Received nack credit for flit 14616
Requeued flit 14616
Received nack credit for flit 14131
Requeued flit 14131
2
2
6
1
Received nack credit for flit 15758
Requeued flit 15758
Received nack credit for flit 11553
Requeued flit 11553
2
Received nack credit for flit 16431
Requeued flit 16431
Received nack credit for flit 13420
Requeued flit 13420
Received nack credit for flit 11806
Requeued flit 11806
Received nack credit for flit 4669
Requeued flit 4669
1
1
Received nack credit for flit 12066
Requeued flit 12066
7
Received nack credit for flit 6275
Requeued flit 6275
Received nack credit for flit 8050
Requeued flit 8050
Received nack credit for flit 17187
Requeued flit 17187
Received nack credit for flit 4645
Requeued flit 4645
Received nack credit for flit 15606
Requeued flit 15606
Received nack credit for flit 13284
Requeued flit 13284
Received nack credit for flit 13931
Requeued flit 13931
Received nack credit for flit 15381
Requeued flit 15381
8
1
1
4
6
Received nack credit for flit 12640
Requeued flit 12640
3
1
2
2
2
4
2
Received nack credit for flit 12170
Requeued flit 12170
6
3
4
Received nack credit for flit 7469
Requeued flit 7469
Received nack credit for flit 5733
Requeued flit 5733
1
3
1
Received nack credit for flit 17366
Requeued flit 17366
2
5
5
1
6
Received nack credit for flit 11872
Requeued flit 11872
Received nack credit for flit 13569
Requeued flit 13569
Received nack credit for flit 7501
Requeued flit 7501
1
Received nack credit for flit 6512
Requeued flit 6512
Received nack credit for flit 17415
Requeued flit 17415
Received nack credit for flit 5867
Requeued flit 5867
Received nack credit for flit 12306
Requeued flit 12306
Received nack credit for flit 14633
Requeued flit 14633
Received nack credit for flit 8300
Requeued flit 8300
Received nack credit for flit 7640
Requeued flit 7640
1
Received nack credit for flit 4691
Requeued flit 4691
Received nack credit for flit 12465
Requeued flit 12465
Received nack credit for flit 14889
Requeued flit 14889
1
1
1
3
1
Received nack credit for flit 12362
Requeued flit 12362
Received nack credit for flit 8255
Requeued flit 8255
Received nack credit for flit 17770
Requeued flit 17770
3
Received nack credit for flit 12947
Requeued flit 12947
Received nack credit for flit 6188
Requeued flit 6188
Received nack credit for flit 5898
Requeued flit 5898
6
Received nack credit for flit 17808
Requeued flit 17808
6
3
2
3
3
1
Received nack credit for flit 8651
Requeued flit 8651
Received nack credit for flit 16014
Requeued flit 16014
3
1
1
Received nack credit for flit 17979
Requeued flit 17979
Received nack credit for flit 13909
Requeued flit 13909
Received nack credit for flit 12930
Requeued flit 12930
4
1
3
1
Received nack credit for flit 17720
Requeued flit 17720
1
2
3
2
3
1
Received nack credit for flit 12465
Requeued flit 12465
3
8
Received nack credit for flit 12530
Requeued flit 12530
Received nack credit for flit 17902
Requeued flit 17902
Received nack credit for flit 11077
Requeued flit 11077
Received nack credit for flit 17863
Requeued flit 17863
Received nack credit for flit 11656
Requeued flit 11656
Received nack credit for flit 9805
Requeued flit 9805
Received nack credit for flit 15873
Requeued flit 15873
1
Received nack credit for flit 8570
Requeued flit 8570
Received nack credit for flit 5980
Requeued flit 5980
Received nack credit for flit 12673
Requeued flit 12673
9
1
3
Received nack credit for flit 6449
Requeued flit 6449
Received nack credit for flit 9122
Requeued flit 9122
Received nack credit for flit 18189
Requeued flit 18189
3
Received nack credit for flit 16500
Requeued flit 16500
Received nack credit for flit 12843
Requeued flit 12843
Received nack credit for flit 15786
Requeued flit 15786
Received nack credit for flit 13351
Requeued flit 13351
Received nack credit for flit 14766
Requeued flit 14766
1
2
1
Received nack credit for flit 18262
Requeued flit 18262
Received nack credit for flit 16126
Requeued flit 16126
Received nack credit for flit 11899
Requeued flit 11899
Received nack credit for flit 5535
Requeued flit 5535
Received nack credit for flit 18301
Requeued flit 18301
4
1
1
6
Received nack credit for flit 18446
Requeued flit 18446
1
5
Received nack credit for flit 6807
Requeued flit 6807
Received nack credit for flit 8406
Requeued flit 8406
Received nack credit for flit 16059
Requeued flit 16059
Received nack credit for flit 18549
Requeued flit 18549
Received nack credit for flit 16851
Requeued flit 16851
12
2
Received nack credit for flit 6643
Requeued flit 6643
3
Received nack credit for flit 18069
Requeued flit 18069
Received nack credit for flit 16390
Requeued flit 16390
Received nack credit for flit 16875
Requeued flit 16875
Received nack credit for flit 11866
Requeued flit 11866
1
4
7
1
Received nack credit for flit 18812
Requeued flit 18812
5
2
Received nack credit for flit 18658
Requeued flit 18658
3
3
3
1
5
Received nack credit for flit 13484
Requeued flit 13484
7
2
1
Received nack credit for flit 14320
Requeued flit 14320
Received nack credit for flit 13125
Requeued flit 13125
2
5
Received nack credit for flit 19056
Requeued flit 19056
Received nack credit for flit 15375
Requeued flit 15375
Received nack credit for flit 7903
Requeued flit 7903
Received nack credit for flit 19096
Requeued flit 19096
Received nack credit for flit 3464
Requeued flit 3464
Received nack credit for flit 9277
Requeued flit 9277
Received nack credit for flit 18727
Requeued flit 18727
2
4
1
2
Received nack credit for flit 7120
Requeued flit 7120
Received nack credit for flit 15558
Requeued flit 15558
Received nack credit for flit 8607
Requeued flit 8607
Received nack credit for flit 6490
Requeued flit 6490
Received nack credit for flit 14062
Requeued flit 14062
Received nack credit for flit 16566
Requeued flit 16566
1
Received nack credit for flit 13073
Requeued flit 13073
Received nack credit for flit 7210
Requeued flit 7210
Received nack credit for flit 13609
Requeued flit 13609
1
7
1
1
4
6
5
Received nack credit for flit 16395
Requeued flit 16395
Received nack credit for flit 16818
Requeued flit 16818
5
Received nack credit for flit 18436
Requeued flit 18436
Received nack credit for flit 17035
Requeued flit 17035
6
3
6
Received nack credit for flit 13128
Requeued flit 13128
1
Received nack credit for flit 13557
Requeued flit 13557
1
1
Received nack credit for flit 13807
Requeued flit 13807
Received nack credit for flit 9367
Requeued flit 9367
Received nack credit for flit 16174
Requeued flit 16174
Received nack credit for flit 13376
Requeued flit 13376
Received nack credit for flit 5101
Requeued flit 5101
1
4
1
1
Received nack credit for flit 19659
Requeued flit 19659
Received nack credit for flit 6699
Requeued flit 6699
4
Received nack credit for flit 8703
Requeued flit 8703
Received nack credit for flit 9221
Requeued flit 9221
4
1
1
3
Received nack credit for flit 19875
Requeued flit 19875
5
Received nack credit for flit 15156
Requeued flit 15156
Received nack credit for flit 19913
Requeued flit 19913
Received nack credit for flit 6803
Requeued flit 6803
1
2
Received nack credit for flit 19968
Requeued flit 19968
Received nack credit for flit 19950
Requeued flit 19950
Received nack credit for flit 18124
Requeued flit 18124
2
Received nack credit for flit 14921
Requeued flit 14921
Received nack credit for flit 6899
Requeued flit 6899
Received nack credit for flit 17000
Requeued flit 17000
Received nack credit for flit 14650
Requeued flit 14650
4
2
1
2
1
4
1
Received nack credit for flit 18133
Requeued flit 18133
Received nack credit for flit 19923
Requeued flit 19923
Received nack credit for flit 11697
Requeued flit 11697
Received nack credit for flit 17065
Requeued flit 17065
1
Received nack credit for flit 13390
Requeued flit 13390
1
1
4
2
5
Received nack credit for flit 20135
Requeued flit 20135
1
1
1
Received nack credit for flit 7051
Requeued flit 7051
Received nack credit for flit 17846
Requeued flit 17846
Received nack credit for flit 13485
Requeued flit 13485
1
1
Received nack credit for flit 16197
Requeued flit 16197
Received nack credit for flit 20423
Requeued flit 20423
Received nack credit for flit 20493
Requeued flit 20493
Received nack credit for flit 14040
Requeued flit 14040
2
2
Received nack credit for flit 16142
Requeued flit 16142
3
1
Received nack credit for flit 14116
Requeued flit 14116
Received nack credit for flit 14187
Requeued flit 14187
Received nack credit for flit 12663
Requeued flit 12663
Received nack credit for flit 14234
Requeued flit 14234
1
1
4
3
1
Received nack credit for flit 20520
Requeued flit 20520
Received nack credit for flit 14377
Requeued flit 14377
Received nack credit for flit 20664
Requeued flit 20664
Received nack credit for flit 14435
Requeued flit 14435
Received nack credit for flit 14935
Requeued flit 14935
Received nack credit for flit 18664
Requeued flit 18664
1
Received nack credit for flit 19665
Requeued flit 19665
Received nack credit for flit 13965
Requeued flit 13965
5
4
4
1
2
1
1
Received nack credit for flit 6698
Requeued flit 6698
Received nack credit for flit 15935
Requeued flit 15935
4
5
1
3
Received nack credit for flit 13740
Requeued flit 13740
Received nack credit for flit 16447
Requeued flit 16447
Received nack credit for flit 16293
Requeued flit 16293
Received nack credit for flit 13970
Requeued flit 13970
Received nack credit for flit 18608
Requeued flit 18608
2
1
2
1
1
3
Received nack credit for flit 20956
Requeued flit 20956
Received nack credit for flit 16254
Requeued flit 16254
Received nack credit for flit 15288
Requeued flit 15288
Received nack credit for flit 19177
Requeued flit 19177
Received nack credit for flit 7246
Requeued flit 7246
Received nack credit for flit 21100
Requeued flit 21100
Received nack credit for flit 11979
Requeued flit 11979
Received nack credit for flit 17012
Requeued flit 17012
1
1
Received nack credit for flit 14261
Requeued flit 14261
Received nack credit for flit 14086
Requeued flit 14086
Received nack credit for flit 10250
Requeued flit 10250
Received nack credit for flit 9964
Requeued flit 9964
Received nack credit for flit 21242
Requeued flit 21242
5
3
1
2
Received nack credit for flit 13742
Requeued flit 13742
Received nack credit for flit 14903
Requeued flit 14903
Received nack credit for flit 21130
Requeued flit 21130
Received nack credit for flit 9900
Requeued flit 9900
5
5
4
1
3
1
1
3
1
1
4
3
3
1
Received nack credit for flit 14166
Requeued flit 14166
1
Received nack credit for flit 21191
Requeued flit 21191
Received nack credit for flit 9753
Requeued flit 9753
Received nack credit for flit 17373
Requeued flit 17373
Received nack credit for flit 21526
Requeued flit 21526
5
1
4
Received nack credit for flit 7231
Requeued flit 7231
Received nack credit for flit 12659
Requeued flit 12659
Received nack credit for flit 14987
Requeued flit 14987
Received nack credit for flit 15079
Requeued flit 15079
2
1
1
5
8
4
1
3
Received nack credit for flit 14309
Requeued flit 14309
Received nack credit for flit 14308
Requeued flit 14308
Received nack credit for flit 15257
Requeued flit 15257
Received nack credit for flit 21598
Requeued flit 21598
3
1
1
3
Received nack credit for flit 10580
Requeued flit 10580
Received nack credit for flit 10902
Requeued flit 10902
Received nack credit for flit 12716
Requeued flit 12716
Received nack credit for flit 13879
Requeued flit 13879
Received nack credit for flit 21659
Requeued flit 21659
1
1
1
Received nack credit for flit 17113
Requeued flit 17113
Received nack credit for flit 21671
Requeued flit 21671
3
1
Received nack credit for flit 7662
Requeued flit 7662
Received nack credit for flit 19569
Requeued flit 19569
1
1
1
Received nack credit for flit 15286
Requeued flit 15286
Received nack credit for flit 11934
Requeued flit 11934
Received nack credit for flit 4158
Requeued flit 4158
Received nack credit for flit 17424
Requeued flit 17424
Received nack credit for flit 8020
Requeued flit 8020
10
3
Received nack credit for flit 21934
Requeued flit 21934
Received nack credit for flit 10184
Requeued flit 10184
Received nack credit for flit 15440
Requeued flit 15440
4
2
2
2
8
Received nack credit for flit 21683
Requeued flit 21683
Received nack credit for flit 22027
Requeued flit 22027
10
8
3
2
Received nack credit for flit 20574
Requeued flit 20574
Received nack credit for flit 22044
Requeued flit 22044
Received nack credit for flit 22010
Requeued flit 22010
1
3
1
4
Received nack credit for flit 20410
Requeued flit 20410
Received nack credit for flit 21888
Requeued flit 21888
Received nack credit for flit 15565
Requeued flit 15565
Received nack credit for flit 15382
Requeued flit 15382
4
Received nack credit for flit 10403
Requeued flit 10403
1
1
Received nack credit for flit 12685
Requeued flit 12685
Received nack credit for flit 11842
Requeued flit 11842
3
3
1
Received nack credit for flit 19399
Requeued flit 19399
Received nack credit for flit 13070
Requeued flit 13070
Received nack credit for flit 10631
Requeued flit 10631
Received nack credit for flit 15080
Requeued flit 15080
3
Received nack credit for flit 22362
Requeued flit 22362
Received nack credit for flit 15667
Requeued flit 15667
Received nack credit for flit 20073
Requeued flit 20073
Received nack credit for flit 18185
Requeued flit 18185
2
4
6
Received nack credit for flit 17329
Requeued flit 17329
7
Received nack credit for flit 15523
Requeued flit 15523
Received nack credit for flit 15894
Requeued flit 15894
Received nack credit for flit 10935
Requeued flit 10935
2
1
2
1
Received nack credit for flit 5774
Requeued flit 5774
Received nack credit for flit 8771
Requeued flit 8771
Received nack credit for flit 17621
Requeued flit 17621
Received nack credit for flit 15007
Requeued flit 15007
5
Received nack credit for flit 15509
Requeued flit 15509
Received nack credit for flit 16181
Requeued flit 16181
1
Received nack credit for flit 19849
Requeued flit 19849
Received nack credit for flit 8549
Requeued flit 8549
1
5
5
2
1
1
Received nack credit for flit 12368
Requeued flit 12368
Received nack credit for flit 6069
Requeued flit 6069
4
2
Received nack credit for flit 15804
Requeued flit 15804
Received nack credit for flit 22820
Requeued flit 22820
1
Received nack credit for flit 20023
Requeued flit 20023
Received nack credit for flit 22451
Requeued flit 22451
Received nack credit for flit 7952
Requeued flit 7952
6
4
1
1
3
Received nack credit for flit 22613
Requeued flit 22613
6
1
3
Received nack credit for flit 10160
Requeued flit 10160
Received nack credit for flit 7360
Requeued flit 7360
Received nack credit for flit 22727
Requeued flit 22727
Received nack credit for flit 15858
Requeued flit 15858
Received nack credit for flit 22985
Requeued flit 22985
Received nack credit for flit 20365
Requeued flit 20365
5
5
3
Received nack credit for flit 8398
Requeued flit 8398
Received nack credit for flit 22879
Requeued flit 22879
1
1
7
1
3
3
1
Received nack credit for flit 7366
Requeued flit 7366
Received nack credit for flit 16588
Requeued flit 16588
Received nack credit for flit 8489
Requeued flit 8489
4
1
7
1
Received nack credit for flit 7412
Requeued flit 7412
Received nack credit for flit 23079
Requeued flit 23079
Received nack credit for flit 9367
Requeued flit 9367
Received nack credit for flit 22607
Requeued flit 22607
Received nack credit for flit 23165
Requeued flit 23165
1
2
Received nack credit for flit 15679
Requeued flit 15679
Received nack credit for flit 16347
Requeued flit 16347
Received nack credit for flit 11976
Requeued flit 11976
3
Received nack credit for flit 6885
Requeued flit 6885
Received nack credit for flit 21451
Requeued flit 21451
5
11
2
4
5
Received nack credit for flit 11887
Requeued flit 11887
Received nack credit for flit 19311
Requeued flit 19311
Received nack credit for flit 23429
Requeued flit 23429
11
5
Received nack credit for flit 18053
Requeued flit 18053
Received nack credit for flit 9549
Requeued flit 9549
Received nack credit for flit 23349
Requeued flit 23349
Received nack credit for flit 16287
Requeued flit 16287
1
2
2
1
Received nack credit for flit 16684
Requeued flit 16684
Received nack credit for flit 15806
Requeued flit 15806
1
7
1
Received nack credit for flit 16497
Requeued flit 16497
Received nack credit for flit 23470
Requeued flit 23470
2
2
4
Received nack credit for flit 13473
Requeued flit 13473
Received nack credit for flit 21041
Requeued flit 21041
Received nack credit for flit 18731
Requeued flit 18731
9
Received nack credit for flit 3473
Requeued flit 3473
Received nack credit for flit 14765
Requeued flit 14765
1
1
1
1
Received nack credit for flit 23689
Requeued flit 23689
Received nack credit for flit 13154
Requeued flit 13154
Received nack credit for flit 23654
Requeued flit 23654
Received nack credit for flit 23064
Requeued flit 23064
3
1
3
Received nack credit for flit 13194
Requeued flit 13194
Received nack credit for flit 16744
Requeued flit 16744
Received nack credit for flit 17679
Requeued flit 17679
2
3
2
Received nack credit for flit 16504
Requeued flit 16504
Received nack credit for flit 22008
Requeued flit 22008
3
1
Received nack credit for flit 5123
Requeued flit 5123
Received nack credit for flit 10939
Requeued flit 10939
Received nack credit for flit 12217
Requeued flit 12217
1
3
1
3
1
Received nack credit for flit 21931
Requeued flit 21931
Received nack credit for flit 24018
Requeued flit 24018
Received nack credit for flit 16539
Requeued flit 16539
4
Received nack credit for flit 17144
Requeued flit 17144
Received nack credit for flit 9044
Requeued flit 9044
3
1
Received nack credit for flit 12373
Requeued flit 12373
Received nack credit for flit 24072
Requeued flit 24072
Received nack credit for flit 10687
Requeued flit 10687
Received nack credit for flit 23796
Requeued flit 23796
1
1
8
1
7
Received nack credit for flit 24224
Requeued flit 24224
Received nack credit for flit 11320
Requeued flit 11320
Received nack credit for flit 16464
Requeued flit 16464
Received nack credit for flit 19449
Requeued flit 19449
Received nack credit for flit 24265
Requeued flit 24265
6
4
Received nack credit for flit 8588
Requeued flit 8588
Received nack credit for flit 21041
Requeued flit 21041
4
2
2
1
Received nack credit for flit 12044
Requeued flit 12044
Received nack credit for flit 10137
Requeued flit 10137
Received nack credit for flit 24385
Requeued flit 24385
6
3
5
1
2
Received nack credit for flit 18664
Requeued flit 18664
Received nack credit for flit 24210
Requeued flit 24210
1
1
3
1
5
3
Received nack credit for flit 24404
Requeued flit 24404
Received nack credit for flit 19834
Requeued flit 19834
Received nack credit for flit 24423
Requeued flit 24423
Received nack credit for flit 10198
Requeued flit 10198
9
1
Received nack credit for flit 24409
Requeued flit 24409
1
Received nack credit for flit 17915
Requeued flit 17915
Received nack credit for flit 14373
Requeued flit 14373
Received nack credit for flit 13352
Requeued flit 13352
Received nack credit for flit 17236
Requeued flit 17236
Received nack credit for flit 12804
Requeued flit 12804
Received nack credit for flit 17075
Requeued flit 17075
Received nack credit for flit 24690
Requeued flit 24690
Received nack credit for flit 11795
Requeued flit 11795
3
8
Received nack credit for flit 22855
Requeued flit 22855
Received nack credit for flit 17323
Requeued flit 17323
Received nack credit for flit 9776
Requeued flit 9776
Received nack credit for flit 17396
Requeued flit 17396
1
2
1
Received nack credit for flit 24777
Requeued flit 24777
Received nack credit for flit 8340
Requeued flit 8340
1
1
6
1
Received nack credit for flit 24769
Requeued flit 24769
Received nack credit for flit 7390
Requeued flit 7390
Received nack credit for flit 24788
Requeued flit 24788
Received nack credit for flit 22976
Requeued flit 22976
1
1
1
4
1
3
Received nack credit for flit 12227
Requeued flit 12227
Received nack credit for flit 17763
Requeued flit 17763
1
2
Received nack credit for flit 22785
Requeued flit 22785
Received nack credit for flit 16771
Requeued flit 16771
Received nack credit for flit 25123
Requeued flit 25123
1
1
2
1
Received nack credit for flit 25085
Requeued flit 25085
Received nack credit for flit 25154
Requeued flit 25154
Received nack credit for flit 14714
Requeued flit 14714
Received nack credit for flit 23186
Requeued flit 23186
Received nack credit for flit 23680
Requeued flit 23680
Received nack credit for flit 22471
Requeued flit 22471
Received nack credit for flit 18584
Requeued flit 18584
4
Received nack credit for flit 16355
Requeued flit 16355
Received nack credit for flit 23669
Requeued flit 23669
1
4
3
Received nack credit for flit 17117
Requeued flit 17117
1
3
1
5
Received nack credit for flit 25380
Requeued flit 25380
Received nack credit for flit 17787
Requeued flit 17787
Received nack credit for flit 17193
Requeued flit 17193
Received nack credit for flit 23045
Requeued flit 23045
Received nack credit for flit 17196
Requeued flit 17196
4
4
5
Received nack credit for flit 19315
Requeued flit 19315
1
5
Received nack credit for flit 17129
Requeued flit 17129
4
10
Received nack credit for flit 16634
Requeued flit 16634
Received nack credit for flit 20351
Requeued flit 20351
4
6
2
5
2
4
Received nack credit for flit 18142
Requeued flit 18142
Received nack credit for flit 17308
Requeued flit 17308
Received nack credit for flit 8169
Requeued flit 8169
Received nack credit for flit 18653
Requeued flit 18653
Received nack credit for flit 25595
Requeued flit 25595
1
5
Received nack credit for flit 9144
Requeued flit 9144
Received nack credit for flit 19331
Requeued flit 19331
Received nack credit for flit 16904
Requeued flit 16904
1
Received nack credit for flit 25649
Requeued flit 25649
Received nack credit for flit 8369
Requeued flit 8369
Received nack credit for flit 6032
Requeued flit 6032
Received nack credit for flit 25008
Requeued flit 25008
Received nack credit for flit 8113
Requeued flit 8113
Received nack credit for flit 18159
Requeued flit 18159
4
1
1
Received nack credit for flit 17773
Requeued flit 17773
Received nack credit for flit 8837
Requeued flit 8837
Received nack credit for flit 18297
Requeued flit 18297
2
2
Received nack credit for flit 23816
Requeued flit 23816
Received nack credit for flit 7360
Requeued flit 7360
Received nack credit for flit 15921
Requeued flit 15921
5
1
5
3
4
Received nack credit for flit 21371
Requeued flit 21371
Received nack credit for flit 18854
Requeued flit 18854
Received nack credit for flit 26161
Requeued flit 26161
1
3
1
1
4
1
1
2
Received nack credit for flit 13028
Requeued flit 13028
Received nack credit for flit 25594
Requeued flit 25594
5
5
4
5
3
1
Received nack credit for flit 26385
Requeued flit 26385
3
Received nack credit for flit 8564
Requeued flit 8564
Received nack credit for flit 20398
Requeued flit 20398
Received nack credit for flit 17023
Requeued flit 17023
Received nack credit for flit 9593
Requeued flit 9593
1
Received nack credit for flit 18026
Requeued flit 18026
Received nack credit for flit 22085
Requeued flit 22085
Received nack credit for flit 21236
Requeued flit 21236
Received nack credit for flit 21415
Requeued flit 21415
Received nack credit for flit 18795
Requeued flit 18795
1
1
Received nack credit for flit 14484
Requeued flit 14484
Received nack credit for flit 8523
Requeued flit 8523
Received nack credit for flit 26498
Requeued flit 26498
Received nack credit for flit 19832
Requeued flit 19832
5
10
Received nack credit for flit 11863
Requeued flit 11863
Received nack credit for flit 26619
Requeued flit 26619
Received nack credit for flit 9139
Requeued flit 9139
2
2
6
Received nack credit for flit 20620
Requeued flit 20620
1
Received nack credit for flit 18827
Requeued flit 18827
Received nack credit for flit 19323
Requeued flit 19323
2
Received nack credit for flit 18686
Requeued flit 18686
Received nack credit for flit 24253
Requeued flit 24253
8
7
1
1
7
Received nack credit for flit 17346
Requeued flit 17346
Received nack credit for flit 16281
Requeued flit 16281
Received nack credit for flit 12504
Requeued flit 12504
Received nack credit for flit 11443
Requeued flit 11443
Received nack credit for flit 18502
Requeued flit 18502
3
1
Received nack credit for flit 19245
Requeued flit 19245
Received nack credit for flit 17993
Requeued flit 17993
5
1
Received nack credit for flit 8695
Requeued flit 8695
Received nack credit for flit 5815
Requeued flit 5815
Received nack credit for flit 27104
Requeued flit 27104
Received nack credit for flit 24025
Requeued flit 24025
5
1
1
1
4
Received nack credit for flit 10393
Requeued flit 10393
5
Received nack credit for flit 19238
Requeued flit 19238
6
Received nack credit for flit 17483
Requeued flit 17483
Received nack credit for flit 27247
Requeued flit 27247
2
Received nack credit for flit 10233
Requeued flit 10233
Received nack credit for flit 24082
Requeued flit 24082
Received nack credit for flit 27430
Requeued flit 27430
6
2
Received nack credit for flit 26894
Requeued flit 26894
Received nack credit for flit 18906
Requeued flit 18906
1
7
Received nack credit for flit 12318
Requeued flit 12318
1
1
5
1
Received nack credit for flit 9240
Requeued flit 9240
1
1
5
1
3
Received nack credit for flit 25352
Requeued flit 25352
Received nack credit for flit 12997
Requeued flit 12997
1
1
Received nack credit for flit 9549
Requeued flit 9549
Received nack credit for flit 24496
Requeued flit 24496
1
Received nack credit for flit 27628
Requeued flit 27628
Received nack credit for flit 22593
Requeued flit 22593
Received nack credit for flit 9027
Requeued flit 9027
Received nack credit for flit 18925
Requeued flit 18925
1
8
2
1
3
Received nack credit for flit 14241
Requeued flit 14241
4
4
1
7
Received nack credit for flit 27861
Requeued flit 27861
Received nack credit for flit 28014
Requeued flit 28014
Received nack credit for flit 27958
Requeued flit 27958
7
2
4
Received nack credit for flit 20416
Requeued flit 20416
1
6
5
Received nack credit for flit 27801
Requeued flit 27801
Received nack credit for flit 7544
Requeued flit 7544
Received nack credit for flit 22237
Requeued flit 22237
Received nack credit for flit 22804
Requeued flit 22804
Received nack credit for flit 12506
Requeued flit 12506
Received nack credit for flit 26642
Requeued flit 26642
Received nack credit for flit 28044
Requeued flit 28044
6
7
1
5
Received nack credit for flit 18507
Requeued flit 18507
Received nack credit for flit 16392
Requeued flit 16392
Received nack credit for flit 27530
Requeued flit 27530
1
4
4
Received nack credit for flit 28227
Requeued flit 28227
Received nack credit for flit 7308
Requeued flit 7308
4
1
1
Received nack credit for flit 9944
Requeued flit 9944
Received nack credit for flit 26031
Requeued flit 26031
3
1
Received nack credit for flit 19537
Requeued flit 19537
Received nack credit for flit 19330
Requeued flit 19330
Received nack credit for flit 9229
Requeued flit 9229
2
1
5
5
2
2
9
Received nack credit for flit 25882
Requeued flit 25882
4
7
Received nack credit for flit 22345
Requeued flit 22345
Received nack credit for flit 13940
Requeued flit 13940
Received nack credit for flit 23043
Requeued flit 23043
Received nack credit for flit 18132
Requeued flit 18132
Received nack credit for flit 7960
Requeued flit 7960
Received nack credit for flit 28487
Requeued flit 28487
Received nack credit for flit 19422
Requeued flit 19422
Received nack credit for flit 19202
Requeued flit 19202
1
1
2
1
7
Received nack credit for flit 13873
Requeued flit 13873
Received nack credit for flit 28570
Requeued flit 28570
Received nack credit for flit 28522
Requeued flit 28522
2
6
1
Received nack credit for flit 15767
Requeued flit 15767
Received nack credit for flit 19798
Requeued flit 19798
Received nack credit for flit 24547
Requeued flit 24547
Received nack credit for flit 8113
Requeued flit 8113
2
Received nack credit for flit 7498
Requeued flit 7498
Received nack credit for flit 21790
Requeued flit 21790
Received nack credit for flit 8548
Requeued flit 8548
Received nack credit for flit 28669
Requeued flit 28669
5
Received nack credit for flit 28616
Requeued flit 28616
Received nack credit for flit 22644
Requeued flit 22644
Received nack credit for flit 13988
Requeued flit 13988
Received nack credit for flit 28838
Requeued flit 28838
Received nack credit for flit 11341
Requeued flit 11341
Received nack credit for flit 23482
Requeued flit 23482
1
2
Received nack credit for flit 28060
Requeued flit 28060
Received nack credit for flit 17355
Requeued flit 17355
1
5
1
Received nack credit for flit 28870
Requeued flit 28870
7
1
1
1
7
2
3
Received nack credit for flit 9915
Requeued flit 9915
5
1
2
1
Received nack credit for flit 20273
Requeued flit 20273
Received nack credit for flit 23807
Requeued flit 23807
2
10
5
Received nack credit for flit 29223
Requeued flit 29223
Received nack credit for flit 29290
Requeued flit 29290
1
1
5
Received nack credit for flit 7178
Requeued flit 7178
Received nack credit for flit 29358
Requeued flit 29358
Received nack credit for flit 19892
Requeued flit 19892
3
1
2
Received nack credit for flit 29191
Requeued flit 29191
Received nack credit for flit 11000
Requeued flit 11000
3
6
3
Received nack credit for flit 14610
Requeued flit 14610
Received nack credit for flit 29405
Requeued flit 29405
Received nack credit for flit 24728
Requeued flit 24728
Received nack credit for flit 23290
Requeued flit 23290
Received nack credit for flit 29427
Requeued flit 29427
6
1
1
1
8
Received nack credit for flit 29267
Requeued flit 29267
Received nack credit for flit 9991
Requeued flit 9991
Received nack credit for flit 14666
Requeued flit 14666
Received nack credit for flit 20282
Requeued flit 20282
Received nack credit for flit 20374
Requeued flit 20374
4
2
5
1
2
Received nack credit for flit 23142
Requeued flit 23142
Received nack credit for flit 25887
Requeued flit 25887
Received nack credit for flit 20054
Requeued flit 20054
4
3
Received nack credit for flit 12463
Requeued flit 12463
Received nack credit for flit 20806
Requeued flit 20806
Received nack credit for flit 10577
Requeued flit 10577
1
7
Received nack credit for flit 26745
Requeued flit 26745
Received nack credit for flit 21025
Requeued flit 21025
Received nack credit for flit 18243
Requeued flit 18243
Received nack credit for flit 21215
Requeued flit 21215
Received nack credit for flit 24325
Requeued flit 24325
2
1
Received nack credit for flit 19899
Requeued flit 19899
1
5
Received nack credit for flit 21014
Requeued flit 21014
Received nack credit for flit 8471
Requeued flit 8471
Received nack credit for flit 9368
Requeued flit 9368
Received nack credit for flit 19943
Requeued flit 19943
3
1
Received nack credit for flit 20887
Requeued flit 20887
Received nack credit for flit 17308
Requeued flit 17308
Received nack credit for flit 14697
Requeued flit 14697
Received nack credit for flit 26397
Requeued flit 26397
3
1
1
3
Received nack credit for flit 16433
Requeued flit 16433
Received nack credit for flit 29984
Requeued flit 29984
Received nack credit for flit 27098
Requeued flit 27098
2
Received nack credit for flit 9917
Requeued flit 9917
Received nack credit for flit 23206
Requeued flit 23206
Received nack credit for flit 30195
Requeued flit 30195
Received nack credit for flit 9649
Requeued flit 9649
1
Received nack credit for flit 30163
Requeued flit 30163
Received nack credit for flit 14417
Requeued flit 14417
1
4
5
1
8
8
1
Received nack credit for flit 19779
Requeued flit 19779
Received nack credit for flit 30182
Requeued flit 30182
Received nack credit for flit 29732
Requeued flit 29732
2
Received nack credit for flit 21418
Requeued flit 21418
1
1
Received nack credit for flit 27462
Requeued flit 27462
1
4
Received nack credit for flit 28652
Requeued flit 28652
Received nack credit for flit 16371
Requeued flit 16371
Received nack credit for flit 21640
Requeued flit 21640
Received nack credit for flit 18791
Requeued flit 18791
Received nack credit for flit 8738
Requeued flit 8738
Received nack credit for flit 9288
Requeued flit 9288
Received nack credit for flit 23972
Requeued flit 23972
1
1
1
7
3
Received nack credit for flit 21465
Requeued flit 21465
1
2
Received nack credit for flit 21268
Requeued flit 21268
1
1
7
1
Received nack credit for flit 20938
Requeued flit 20938
1
3
1
1
Received nack credit for flit 20201
Requeued flit 20201
8
5
3
1
1
Received nack credit for flit 21331
Requeued flit 21331
Received nack credit for flit 14715
Requeued flit 14715
2
10
3
1
Received nack credit for flit 30835
Requeued flit 30835
Received nack credit for flit 30790
Requeued flit 30790
Received nack credit for flit 30874
Requeued flit 30874
1
2
4
Received nack credit for flit 30880
Requeued flit 30880
Received nack credit for flit 21741
Requeued flit 21741
Received nack credit for flit 24533
Requeued flit 24533
Received nack credit for flit 21205
Requeued flit 21205
Received nack credit for flit 18445
Requeued flit 18445
Received nack credit for flit 24213
Requeued flit 24213
1
1
1
1
Received nack credit for flit 30948
Requeued flit 30948
Received nack credit for flit 23773
Requeued flit 23773
3
4
Received nack credit for flit 18109
Requeued flit 18109
Received nack credit for flit 31032
Requeued flit 31032
Received nack credit for flit 30984
Requeued flit 30984
Received nack credit for flit 31048
Requeued flit 31048
Received nack credit for flit 28703
Requeued flit 28703
Received nack credit for flit 24388
Requeued flit 24388
8
5
Received nack credit for flit 15946
Requeued flit 15946
Received nack credit for flit 19394
Requeued flit 19394
Received nack credit for flit 14441
Requeued flit 14441
1
4
8
2
1
9
Received nack credit for flit 23383
Requeued flit 23383
Received nack credit for flit 6788
Requeued flit 6788
Received nack credit for flit 14318
Requeued flit 14318
Received nack credit for flit 31171
Requeued flit 31171
4
2
4
1
Received nack credit for flit 28011
Requeued flit 28011
Received nack credit for flit 31298
Requeued flit 31298
Received nack credit for flit 22458
Requeued flit 22458
2
Received nack credit for flit 30835
Requeued flit 30835
Received nack credit for flit 31306
Requeued flit 31306
5
1
3
Received nack credit for flit 8691
Requeued flit 8691
Received nack credit for flit 10441
Requeued flit 10441
2
Received nack credit for flit 13629
Requeued flit 13629
Received nack credit for flit 8278
Requeued flit 8278
Received nack credit for flit 22367
Requeued flit 22367
Received nack credit for flit 26502
Requeued flit 26502
Received nack credit for flit 21894
Requeued flit 21894
Received nack credit for flit 28699
Requeued flit 28699
Received nack credit for flit 27426
Requeued flit 27426
8
1
1
2
1
1
1
Received nack credit for flit 20897
Requeued flit 20897
Received nack credit for flit 10548
Requeued flit 10548
Received nack credit for flit 13815
Requeued flit 13815
1
2
2
1
1
1
Received nack credit for flit 14506
Requeued flit 14506
Received nack credit for flit 31527
Requeued flit 31527
9
1
6
Received nack credit for flit 9386
Requeued flit 9386
Received nack credit for flit 21760
Requeued flit 21760
Received nack credit for flit 22215
Requeued flit 22215
2
6
Received nack credit for flit 24504
Requeued flit 24504
1
Received nack credit for flit 25882
Requeued flit 25882
Received nack credit for flit 31740
Requeued flit 31740
Received nack credit for flit 13308
Requeued flit 13308
Received nack credit for flit 25174
Requeued flit 25174
Received nack credit for flit 21300
Requeued flit 21300
Received nack credit for flit 30161
Requeued flit 30161
Received nack credit for flit 22475
Requeued flit 22475
Received nack credit for flit 23642
Requeued flit 23642
Received nack credit for flit 25102
Requeued flit 25102
Received nack credit for flit 28264
Requeued flit 28264
Received nack credit for flit 22818
Requeued flit 22818
Received nack credit for flit 31834
Requeued flit 31834
1
Received nack credit for flit 16213
Requeued flit 16213
Received nack credit for flit 12835
Requeued flit 12835
Received nack credit for flit 10016
Requeued flit 10016
4
5
2
1
Received nack credit for flit 22415
Requeued flit 22415
Received nack credit for flit 31872
Requeued flit 31872
Received nack credit for flit 31999
Requeued flit 31999
Received nack credit for flit 10571
Requeued flit 10571
1
Received nack credit for flit 32140
Requeued flit 32140
5
2
2
3
3
3
Received nack credit for flit 11015
Requeued flit 11015
Received nack credit for flit 12473
Requeued flit 12473
Received nack credit for flit 31717
Requeued flit 31717
Received nack credit for flit 32199
Requeued flit 32199
1
Received nack credit for flit 22841
Requeued flit 22841
3
2
3
1
Received nack credit for flit 29317
Requeued flit 29317
9
Received nack credit for flit 22648
Requeued flit 22648
Received nack credit for flit 23042
Requeued flit 23042
Received nack credit for flit 23987
Requeued flit 23987
Received nack credit for flit 22260
Requeued flit 22260
5
5
2
1
Received nack credit for flit 29227
Requeued flit 29227
Received nack credit for flit 28750
Requeued flit 28750
6
5
Received nack credit for flit 22663
Requeued flit 22663
Received nack credit for flit 22016
Requeued flit 22016
Received nack credit for flit 24359
Requeued flit 24359
Received nack credit for flit 32622
Requeued flit 32622
2
1
1
1
1
3
2
Received nack credit for flit 11075
Requeued flit 11075
Received nack credit for flit 20702
Requeued flit 20702
Received nack credit for flit 19759
Requeued flit 19759
Received nack credit for flit 29548
Requeued flit 29548
1
Received nack credit for flit 12104
Requeued flit 12104
Received nack credit for flit 9232
Requeued flit 9232
Received nack credit for flit 20928
Requeued flit 20928
1
2
4
2
1
3
4
6
Received nack credit for flit 18221
Requeued flit 18221
3
3
3
Received nack credit for flit 33030
Requeued flit 33030
Received nack credit for flit 32998
Requeued flit 32998
Received nack credit for flit 15943
Requeued flit 15943
1
1
Received nack credit for flit 22323
Requeued flit 22323
Received nack credit for flit 32493
Requeued flit 32493
2
6
2
3
3
Received nack credit for flit 23322
Requeued flit 23322
Received nack credit for flit 33021
Requeued flit 33021
Received nack credit for flit 29647
Requeued flit 29647
Received nack credit for flit 19042
Requeued flit 19042
3
2
Received nack credit for flit 33204
Requeued flit 33204
Received nack credit for flit 15119
Requeued flit 15119
Received nack credit for flit 19484
Requeued flit 19484
1
Received nack credit for flit 29296
Requeued flit 29296
Received nack credit for flit 28703
Requeued flit 28703
Received nack credit for flit 16958
Requeued flit 16958
1
2
Received nack credit for flit 22260
Requeued flit 22260
1
Received nack credit for flit 33138
Requeued flit 33138
Received nack credit for flit 18014
Requeued flit 18014
Received nack credit for flit 15302
Requeued flit 15302
Received nack credit for flit 33367
Requeued flit 33367
1
Received nack credit for flit 12054
Requeued flit 12054
Received nack credit for flit 33328
Requeued flit 33328
Received nack credit for flit 19259
Requeued flit 19259
Received nack credit for flit 18513
Requeued flit 18513
Received nack credit for flit 22119
Requeued flit 22119
1
1
Received nack credit for flit 27756
Requeued flit 27756
1
1
1
2
Received nack credit for flit 23594
Requeued flit 23594
2
Received nack credit for flit 33567
Requeued flit 33567
Received nack credit for flit 23148
Requeued flit 23148
2
1
1
1
3
1
Received nack credit for flit 33661
Requeued flit 33661
Received nack credit for flit 30691
Requeued flit 30691
2
1
2
Received nack credit for flit 26782
Requeued flit 26782
Received nack credit for flit 23519
Requeued flit 23519
Received nack credit for flit 33769
Requeued flit 33769
Received nack credit for flit 33736
Requeued flit 33736
1
3
3
1
3
4
Received nack credit for flit 33556
Requeued flit 33556
2
2
Received nack credit for flit 17688
Requeued flit 17688
Received nack credit for flit 26223
Requeued flit 26223
2
2
Received nack credit for flit 33993
Requeued flit 33993
Received nack credit for flit 23149
Requeued flit 23149
Received nack credit for flit 33943
Requeued flit 33943
Received nack credit for flit 12810
Requeued flit 12810
1
4
Received nack credit for flit 32775
Requeued flit 32775
Received nack credit for flit 15940
Requeued flit 15940
1
3
1
1
1
3
Received nack credit for flit 30341
Requeued flit 30341
Received nack credit for flit 33131
Requeued flit 33131
Received nack credit for flit 15973
Requeued flit 15973
Received nack credit for flit 24004
Requeued flit 24004
Received nack credit for flit 18414
Requeued flit 18414
Received nack credit for flit 30622
Requeued flit 30622
1
1
3
Received nack credit for flit 22412
Requeued flit 22412
Received nack credit for flit 11857
Requeued flit 11857
Received nack credit for flit 16426
Requeued flit 16426
5
1
Received nack credit for flit 25581
Requeued flit 25581
Received nack credit for flit 25419
Requeued flit 25419
Received nack credit for flit 34037
Requeued flit 34037
Received nack credit for flit 34284
Requeued flit 34284
1
5
1
4
Received nack credit for flit 23934
Requeued flit 23934
Received nack credit for flit 16683
Requeued flit 16683
Received nack credit for flit 34383
Requeued flit 34383
Received nack credit for flit 34402
Requeued flit 34402
1
3
9
2
1
1
1
3
6
Received nack credit for flit 34368
Requeued flit 34368
Received nack credit for flit 23406
Requeued flit 23406
Received nack credit for flit 27366
Requeued flit 27366
Received nack credit for flit 34391
Requeued flit 34391
Received nack credit for flit 33780
Requeued flit 33780
Received nack credit for flit 15716
Requeued flit 15716
Received nack credit for flit 11563
Requeued flit 11563
[...]
Received nack credit for flit 333308
Requeued flit 333308
5
Received nack credit for flit 338264
Requeued flit 338264
Received nack credit for flit 333924
Requeued flit 333924
5
8
1
3
2
1
1
1
7
Received nack credit for flit 225918
Requeued flit 225918
Received nack credit for flit 358368
Requeued flit 358368
Received nack credit for flit 278842
Requeued flit 278842
Received nack credit for flit 359141
Requeued flit 359141
3
3
Received nack credit for flit 333139
Requeued flit 333139
Received nack credit for flit 309386
Requeued flit 309386
Received nack credit for flit 238242
Requeued flit 238242
Received nack credit for flit 321849
Requeued flit 321849
1
5
1
Received nack credit for flit 318397
Requeued flit 318397
Received nack credit for flit 244592
Requeued flit 244592
Received nack credit for flit 334673
Requeued flit 334673
4
1
3
Received nack credit for flit 308617
Requeued flit 308617
Received nack credit for flit 360485
Requeued flit 360485
Received nack credit for flit 352393
Requeued flit 352393
3
5
1
1
Received nack credit for flit 256969
Requeued flit 256969
Received nack credit for flit 310716
Requeued flit 310716
Received nack credit for flit 296716
Requeued flit 296716
Received nack credit for flit 236242
Requeued flit 236242
3
8
Received nack credit for flit 363828
Requeued flit 363828
Received nack credit for flit 354426
Requeued flit 354426
Received nack credit for flit 348119
Requeued flit 348119
1
Received nack credit for flit 365259
Requeued flit 365259
Received nack credit for flit 282928
Requeued flit 282928
1
1
Received nack credit for flit 335334
Requeued flit 335334
Received nack credit for flit 332428
Requeued flit 332428
Received nack credit for flit 333162
Requeued flit 333162
Received nack credit for flit 271345
Requeued flit 271345
Received nack credit for flit 205132
Requeued flit 205132
3
1
Received nack credit for flit 360546
Requeued flit 360546
5
1
4
1
2
1
1
1
2
Received nack credit for flit 359008
Requeued flit 359008
2
2
5
1
Received nack credit for flit 333622
Requeued flit 333622
3
1
6
1
Received nack credit for flit 360810
Requeued flit 360810
Received nack credit for flit 351076
Requeued flit 351076
Received nack credit for flit 332957
Requeued flit 332957
1
Received nack credit for flit 338031
Requeued flit 338031
Received nack credit for flit 334919
Requeued flit 334919
Received nack credit for flit 340033
Requeued flit 340033
Received nack credit for flit 353226
Requeued flit 353226
8
11
Received nack credit for flit 349278
Requeued flit 349278
Received nack credit for flit 330961
Requeued flit 330961
Received nack credit for flit 366373
Requeued flit 366373
2
1
Received nack credit for flit 309701
Requeued flit 309701
9
1
Received nack credit for flit 350809
Requeued flit 350809
Received nack credit for flit 359412
Requeued flit 359412
Received nack credit for flit 359008
Requeued flit 359008
Received nack credit for flit 333078
Requeued flit 333078
1
Received nack credit for flit 326680
Requeued flit 326680
1
2
3
1
Received nack credit for flit 334002
Requeued flit 334002
Received nack credit for flit 335559
Requeued flit 335559
Received nack credit for flit 242687
Requeued flit 242687
Received nack credit for flit 362359
Requeued flit 362359
1
Received nack credit for flit 335644
Requeued flit 335644
Received nack credit for flit 360485
Requeued flit 360485
4
Received nack credit for flit 233208
Requeued flit 233208
1
3
Received nack credit for flit 350180
Requeued flit 350180
Received nack credit for flit 357966
Requeued flit 357966
Received nack credit for flit 358069
Requeued flit 358069
6
2
Received nack credit for flit 356940
Requeued flit 356940
Received nack credit for flit 240963
Requeued flit 240963
Received nack credit for flit 326952
Requeued flit 326952
Received nack credit for flit 307661
Requeued flit 307661
1
2
Received nack credit for flit 354143
Requeued flit 354143
Received nack credit for flit 336185
Requeued flit 336185
5
1
1
7
2
Received nack credit for flit 357431
Requeued flit 357431
1
Received nack credit for flit 359499
Requeued flit 359499
Received nack credit for flit 351760
Requeued flit 351760
7
6
Received nack credit for flit 239331
Requeued flit 239331
Received nack credit for flit 303788
Requeued flit 303788
Received nack credit for flit 360940
Requeued flit 360940
1
2
Received nack credit for flit 193414
Requeued flit 193414
Received nack credit for flit 361494
Requeued flit 361494
Received nack credit for flit 353738
Requeued flit 353738
10
5
Received nack credit for flit 250959
Requeued flit 250959
Received nack credit for flit 336435
Requeued flit 336435
Received nack credit for flit 360483
Requeued flit 360483
7
10
1
3
4
3
Received nack credit for flit 339824
Requeued flit 339824
6
3
1
3
Received nack credit for flit 335207
Requeued flit 335207
Received nack credit for flit 165046
Requeued flit 165046
Received nack credit for flit 265683
Requeued flit 265683
2
4
7
5
4
Received nack credit for flit 169830
Requeued flit 169830
Received nack credit for flit 349985
Requeued flit 349985
Received nack credit for flit 334946
Requeued flit 334946
Received nack credit for flit 326026
Requeued flit 326026
Received nack credit for flit 269306
Requeued flit 269306
1
2
Received nack credit for flit 361481
Requeued flit 361481
1
6
Received nack credit for flit 245400
Requeued flit 245400
Received nack credit for flit 354036
Requeued flit 354036
Received nack credit for flit 174303
Requeued flit 174303
3
Received nack credit for flit 306161
Requeued flit 306161
Received nack credit for flit 334973
Requeued flit 334973
2
Received nack credit for flit 361464
Requeued flit 361464
Received nack credit for flit 341886
Requeued flit 341886
Received nack credit for flit 167103
Requeued flit 167103
1
3
Received nack credit for flit 349776
Requeued flit 349776
Received nack credit for flit 351896
Requeued flit 351896
4
Received nack credit for flit 185735
Requeued flit 185735
Received nack credit for flit 270659
Requeued flit 270659
Received nack credit for flit 352945
Requeued flit 352945
Received nack credit for flit 305204
Requeued flit 305204
4
2
Received nack credit for flit 363763
Requeued flit 363763
3
7
1
Received nack credit for flit 307089
Requeued flit 307089
Received nack credit for flit 337438
Requeued flit 337438
Received nack credit for flit 349626
Requeued flit 349626
3
1
5
1
Received nack credit for flit 351089
Requeued flit 351089
Received nack credit for flit 353751
Requeued flit 353751
6
1
1
Received nack credit for flit 329657
Requeued flit 329657
2
2
1
6
1
1
Received nack credit for flit 185390
Requeued flit 185390
3
3
Received nack credit for flit 335556
Requeued flit 335556
3
2
Received nack credit for flit 240372
Requeued flit 240372
2
1
5
Received nack credit for flit 343753
Requeued flit 343753
Received nack credit for flit 357351
Requeued flit 357351
Received nack credit for flit 364200
Requeued flit 364200
Received nack credit for flit 337705
Requeued flit 337705
Received nack credit for flit 361006
Requeued flit 361006
1
Received nack credit for flit 357500
Requeued flit 357500
Received nack credit for flit 361152
Requeued flit 361152
Received nack credit for flit 335603
Requeued flit 335603
Received nack credit for flit 350209
Requeued flit 350209
1
2
1
Received nack credit for flit 302370
Requeued flit 302370
Received nack credit for flit 300476
Requeued flit 300476
Received nack credit for flit 235884
Requeued flit 235884
3
2
7
Received nack credit for flit 311137
Requeued flit 311137
Received nack credit for flit 244945
Requeued flit 244945
3
5
4
2
Received nack credit for flit 362051
Requeued flit 362051
Received nack credit for flit 362325
Requeued flit 362325
Received nack credit for flit 352586
Requeued flit 352586
Received nack credit for flit 329995
Requeued flit 329995
Received nack credit for flit 364534
Requeued flit 364534
5
11
Received nack credit for flit 357828
Requeued flit 357828
2
1
7
Received nack credit for flit 280382
Requeued flit 280382
Received nack credit for flit 360716
Requeued flit 360716
Received nack credit for flit 340611
Requeued flit 340611
1
Received nack credit for flit 329729
Requeued flit 329729
Received nack credit for flit 351277
Requeued flit 351277
1
Received nack credit for flit 353403
Requeued flit 353403
Received nack credit for flit 171576
Requeued flit 171576
Received nack credit for flit 337584
Requeued flit 337584
3
8
2
5
Received nack credit for flit 367138
Requeued flit 367138
Received nack credit for flit 310798
Requeued flit 310798
Received nack credit for flit 350606
Requeued flit 350606
Received nack credit for flit 162421
Requeued flit 162421
1
4
Received nack credit for flit 336900
Requeued flit 336900
Received nack credit for flit 339285
Requeued flit 339285
Received nack credit for flit 353826
Requeued flit 353826
1
2
2
8
1
8
1
1
Received nack credit for flit 326674
Requeued flit 326674
Received nack credit for flit 369648
Requeued flit 369648
Received nack credit for flit 334209
Requeued flit 334209
1
7
2
1
1
1
2
1
1
Received nack credit for flit 352017
Requeued flit 352017
Received nack credit for flit 337430
Requeued flit 337430
Received nack credit for flit 330261
Requeued flit 330261
Received nack credit for flit 242243
Requeued flit 242243
Received nack credit for flit 351243
Requeued flit 351243
4
7
Received nack credit for flit 361758
Requeued flit 361758
Received nack credit for flit 335961
Requeued flit 335961
1
3
1
Received nack credit for flit 309629
Requeued flit 309629
Received nack credit for flit 299345
Requeued flit 299345
7
2
4
Received nack credit for flit 353965
Requeued flit 353965
Received nack credit for flit 167263
Requeued flit 167263
Received nack credit for flit 339606
Requeued flit 339606
Received nack credit for flit 335142
Requeued flit 335142
2
2
Received nack credit for flit 352179
Requeued flit 352179
Received nack credit for flit 362223
Requeued flit 362223
Received nack credit for flit 351913
Requeued flit 351913
Received nack credit for flit 336647
Requeued flit 336647
7
10
Received nack credit for flit 364382
Requeued flit 364382
Received nack credit for flit 310896
Requeued flit 310896
5
2
1
1
6
Received nack credit for flit 363007
Requeued flit 363007
Received nack credit for flit 362346
Requeued flit 362346
Received nack credit for flit 361345
Requeued flit 361345
Received nack credit for flit 341424
Requeued flit 341424
Received nack credit for flit 242872
Requeued flit 242872
Received nack credit for flit 338424
Requeued flit 338424
Received nack credit for flit 354556
Requeued flit 354556
Received nack credit for flit 338087
Requeued flit 338087
Received nack credit for flit 330549
Requeued flit 330549
Received nack credit for flit 311337
Requeued flit 311337
Received nack credit for flit 279722
Requeued flit 279722
Received nack credit for flit 358608
Requeued flit 358608
Received nack credit for flit 343394
Requeued flit 343394
Received nack credit for flit 322302
Requeued flit 322302
Received nack credit for flit 341504
Requeued flit 341504
4
9
1
1
Received nack credit for flit 340235
Requeued flit 340235
1
Received nack credit for flit 278646
Requeued flit 278646
3
3
5
Received nack credit for flit 213992
Requeued flit 213992
Received nack credit for flit 165046
Requeued flit 165046
Received nack credit for flit 332443
Requeued flit 332443
5
Received nack credit for flit 362926
Requeued flit 362926
Received nack credit for flit 273711
Requeued flit 273711
2
1
4
1
8
1
Received nack credit for flit 308040
Requeued flit 308040
2
Received nack credit for flit 232517
Requeued flit 232517
Received nack credit for flit 311087
Requeued flit 311087
Received nack credit for flit 337043
Requeued flit 337043
1
1
1
Received nack credit for flit 169844
Requeued flit 169844
1
4
3
Received nack credit for flit 329813
Requeued flit 329813
Received nack credit for flit 355495
Requeued flit 355495
Received nack credit for flit 361856
Requeued flit 361856
5
7
Received nack credit for flit 337699
Requeued flit 337699
Received nack credit for flit 175371
Requeued flit 175371
Received nack credit for flit 362559
Requeued flit 362559
4
3
2
Received nack credit for flit 279281
Requeued flit 279281
Received nack credit for flit 353453
Requeued flit 353453
Received nack credit for flit 335769
Requeued flit 335769
4
Received nack credit for flit 361394
Requeued flit 361394
Received nack credit for flit 340724
Requeued flit 340724
Received nack credit for flit 240209
Requeued flit 240209
8
Received nack credit for flit 332539
Requeued flit 332539
Received nack credit for flit 284307
Requeued flit 284307
Received nack credit for flit 243747
Requeued flit 243747
1
Received nack credit for flit 352272
Requeued flit 352272
3
Received nack credit for flit 353545
Requeued flit 353545
1
6
1
5
7
Received nack credit for flit 352747
Requeued flit 352747
Received nack credit for flit 205977
Requeued flit 205977
5
2
Received nack credit for flit 241565
Requeued flit 241565
1
4
Received nack credit for flit 336196
Requeued flit 336196
Received nack credit for flit 364094
Requeued flit 364094
Received nack credit for flit 205199
Requeued flit 205199
Received nack credit for flit 354825
Requeued flit 354825
Received nack credit for flit 353932
Requeued flit 353932
Received nack credit for flit 337508
Requeued flit 337508
5
Received nack credit for flit 308868
Requeued flit 308868
Received nack credit for flit 300888
Requeued flit 300888
Received nack credit for flit 282859
Requeued flit 282859
9
6
7
Received nack credit for flit 363004
Requeued flit 363004
Received nack credit for flit 352839
Requeued flit 352839
3
8
1
4
Received nack credit for flit 182920
Requeued flit 182920
1
1
Received nack credit for flit 336232
Requeued flit 336232
Received nack credit for flit 329479
Requeued flit 329479
1
7
3
3
6
5
1
7
Received nack credit for flit 308421
Requeued flit 308421
4
1
Received nack credit for flit 364469
Requeued flit 364469
Received nack credit for flit 354042
Requeued flit 354042
3
1
4
Received nack credit for flit 364462
Requeued flit 364462
Received nack credit for flit 341324
Requeued flit 341324
1
4
Received nack credit for flit 359176
Requeued flit 359176
Received nack credit for flit 353434
Requeued flit 353434
6
3
3
Received nack credit for flit 310101
Requeued flit 310101
Received nack credit for flit 339115
Requeued flit 339115
Received nack credit for flit 176251
Requeued flit 176251
Received nack credit for flit 241618
Requeued flit 241618
Received nack credit for flit 327721
Requeued flit 327721
Received nack credit for flit 306958
Requeued flit 306958
Received nack credit for flit 358476
Requeued flit 358476
Received nack credit for flit 335923
Requeued flit 335923
Received nack credit for flit 353897
Requeued flit 353897
1
3
3
2
4
Received nack credit for flit 168881
Requeued flit 168881
Received nack credit for flit 337006
Requeued flit 337006
1
1
1
6
Received nack credit for flit 337310
Requeued flit 337310
4
1
Received nack credit for flit 364158
Requeued flit 364158
3
Received nack credit for flit 353931
Requeued flit 353931
Received nack credit for flit 336342
Requeued flit 336342
3
1
Received nack credit for flit 356796
Requeued flit 356796
Received nack credit for flit 338689
Requeued flit 338689
Received nack credit for flit 364711
Requeued flit 364711
Received nack credit for flit 284545
Requeued flit 284545
4
2
Received nack credit for flit 280800
Requeued flit 280800
1
5
1
Received nack credit for flit 355046
Requeued flit 355046
Received nack credit for flit 359636
Requeued flit 359636
4
Received nack credit for flit 338594
Requeued flit 338594
Received nack credit for flit 254384
Requeued flit 254384
Received nack credit for flit 362280
Requeued flit 362280
Received nack credit for flit 365384
Requeued flit 365384
2
1
5
2
3
Received nack credit for flit 364247
Requeued flit 364247
Received nack credit for flit 311165
Requeued flit 311165
Received nack credit for flit 364854
Requeued flit 364854
Received nack credit for flit 363504
Requeued flit 363504
Received nack credit for flit 354155
Requeued flit 354155
Received nack credit for flit 313046
Requeued flit 313046
7
4
Received nack credit for flit 195708
Requeued flit 195708
Received nack credit for flit 249987
Requeued flit 249987
Received nack credit for flit 354956
Requeued flit 354956
6
4
1
2
7
5
Received nack credit for flit 334267
Requeued flit 334267
Received nack credit for flit 228861
Requeued flit 228861
Received nack credit for flit 332215
Requeued flit 332215
Received nack credit for flit 308909
Requeued flit 308909
4
5
1
2
5
Received nack credit for flit 234678
Requeued flit 234678
2
2
Received nack credit for flit 340530
Requeued flit 340530
Received nack credit for flit 358330
Requeued flit 358330
4
Received nack credit for flit 249987
Requeued flit 249987
1
Received nack credit for flit 365144
Requeued flit 365144
Received nack credit for flit 365107
Requeued flit 365107
Received nack credit for flit 238091
Requeued flit 238091
Received nack credit for flit 212803
Requeued flit 212803
1
3
2
Received nack credit for flit 171720
Requeued flit 171720
Received nack credit for flit 346881
Requeued flit 346881
Received nack credit for flit 338310
Requeued flit 338310
Received nack credit for flit 338776
Requeued flit 338776
Received nack credit for flit 355415
Requeued flit 355415
Received nack credit for flit 308657
Requeued flit 308657
1
5
6
3
4
2
Received nack credit for flit 365098
Requeued flit 365098
4
1
9
4
3
Received nack credit for flit 365785
Requeued flit 365785
Received nack credit for flit 327587
Requeued flit 327587
3
Received nack credit for flit 242218
Requeued flit 242218
Received nack credit for flit 365689
Requeued flit 365689
1
Received nack credit for flit 363184
Requeued flit 363184
3
1
2
Received nack credit for flit 191870
Requeued flit 191870
Received nack credit for flit 331083
Requeued flit 331083
1
1
9
Received nack credit for flit 343077
Requeued flit 343077
Received nack credit for flit 312406
Requeued flit 312406
Received nack credit for flit 364599
Requeued flit 364599
Received nack credit for flit 241618
Requeued flit 241618
6
1
Received nack credit for flit 337894
Requeued flit 337894
Received nack credit for flit 338048
Requeued flit 338048
5
4
2
Received nack credit for flit 364027
Requeued flit 364027
Received nack credit for flit 313319
Requeued flit 313319
Received nack credit for flit 277670
Requeued flit 277670
Received nack credit for flit 241664
Requeued flit 241664
Received nack credit for flit 357899
Requeued flit 357899
Received nack credit for flit 308690
Requeued flit 308690
Received nack credit for flit 363998
Requeued flit 363998
7
Received nack credit for flit 336989
Requeued flit 336989
Received nack credit for flit 182213
Requeued flit 182213
5
Received nack credit for flit 308969
Requeued flit 308969
Received nack credit for flit 362698
Requeued flit 362698
Received nack credit for flit 353463
Requeued flit 353463
Class 0:
Packet latency average = 1916.54
	minimum = 5
	maximum = 7223
Network latency average = 1580.4
	minimum = 5
	maximum = 7223
Slowest packet = 158672
Flit latency average = 1580.4
	minimum = 5
	maximum = 7223
Slowest flit = 158672
Fragmentation average = 0
	minimum = 0
	maximum = 0
Injected packet rate average = 0.61288
	minimum = 0.4077 (at node 1)
	maximum = 0.8979 (at node 28)
Accepted packet rate average = 0.495141
	minimum = 0.4714 (at node 21)
	maximum = 0.5083 (at node 1)
Injected flit rate average = 0.61288
	minimum = 0.4077 (at node 1)
	maximum = 0.8979 (at node 28)
Accepted flit rate average= 0.495141
	minimum = 0.4714 (at node 21)
	maximum = 0.5083 (at node 1)
Injected packet length average = 1
Accepted packet length average = 1
Total in-flight flits = 75385 (0 measured)
latency change    = 1
throughput change = 1
Average latency for class 0 exceeded 500 cycles. Aborting simulation.
Too many sample periods needed to converge
Simulation unstable, ending ...
Total run time 56.8825
