BEGIN Configuration File: examples/ecc_mesh88_config_1_0.500_link_4
// $Id$

// Copyright (c) 2007-2015, Trustees of The Leland Stanford Junior University
// All rights reserved.
//
// Redistribution and use in source and binary forms, with or without
// modification, are permitted provided that the following conditions are met:
//
// Redistributions of source code must retain the above copyright notice, this
// list of conditions and the following disclaimer.
// Redistributions in binary form must reproduce the above copyright notice,
// this list of conditions and the following disclaimer in the documentation
// and/or other materials provided with the distribution.
//
// THIS SOFTWARE IS PROVIDED BY THE COPYRIGHT HOLDERS AND CONTRIBUTORS "AS IS"
// AND ANY EXPRESS OR IMPLIED WARRANTIES, INCLUDING, BUT NOT LIMITED TO, THE
// IMPLIED WARRANTIES OF MERCHANTABILITY AND FITNESS FOR A PARTICULAR PURPOSE
// ARE DISCLAIMED. IN NO EVENT SHALL THE COPYRIGHT OWNER OR CONTRIBUTORS BE
// LIABLE FOR ANY DIRECT, INDIRECT, INCIDENTAL, SPECIAL, EXEMPLARY, OR
// CONSEQUENTIAL DAMAGES (INCLUDING, BUT NOT LIMITED TO, PROCUREMENT OF
// SUBSTITUTE GOODS OR SERVICES; LOSS OF USE, DATA, OR PROFITS; OR BUSINESS
// INTERRUPTION) HOWEVER CAUSED AND ON ANY THEORY OF LIABILITY, WHETHER IN
// CONTRACT, STRICT LIABILITY, OR TORT (INCLUDING NEGLIGENCE OR OTHERWISE)
// ARISING IN ANY WAY OUT OF THE USE OF THIS SOFTWARE, EVEN IF ADVISED OF THE
// POSSIBILITY OF SUCH DAMAGE.

// Dragonfly
//




vc_buf_size = 256;


wait_for_tail_credit = 0;

//
// Router architecture
//
vc_allocator = separable_input_first; 
sw_allocator = separable_input_first;
alloc_iters  = 1;

credit_delay   = 2;
routing_delay  = 0;
vc_alloc_delay = 1;
sw_alloc_delay = 1;
st_final_delay = 1;

input_speedup     = 1;
output_speedup    = 1;
internal_speedup  = 2.0;


warmup_periods = 3;
sim_count          = 1;

sample_period  = 10000;  


routing_function = dor;
num_vcs     = 2;

priority = none;
traffic       = uniform; 

injection_rate = 0.5;
packet_size = 1;
injection_rate_uses_flits = 1;

topology = mesh;

k  = 8;
n  = 2;

fer = 4;
ecc = link;

watch_out=-;
//watch_file = watch.txt;

ecc = link;

stats_out = examples/ecc_mesh88_config_1_0.500_link_4.m;

END Configuration File: examples/ecc_mesh88_config_1_0.500_link_4
3
Received nack credit for flit 719
Requeued flit 719
4
Received nack credit for flit 2412
Requeued flit 2412
3
Received nack credit for flit 5123
Requeued flit 5123
1
Received nack credit for flit 6654
Requeued flit 6654
9
Received nack credit for flit 5356
Requeued flit 5356
1
Received nack credit for flit 8654
Requeued flit 8654
1
Received nack credit for flit 9043
Requeued flit 9043
3
Received nack credit for flit 11359
Requeued flit 11359
6
Received nack credit for flit 12718
Requeued flit 12718
4
Received nack credit for flit 15243
Requeued flit 15243
2
Received nack credit for flit 16879
Requeued flit 16879
1
Received nack credit for flit 18516
Requeued flit 18516
1
Received nack credit for flit 19161
Requeued flit 19161
4
Received nack credit for flit 19111
Requeued flit 19111
2
Received nack credit for flit 24211
Requeued flit 24211
3
Received nack credit for flit 29747
Requeued flit 29747
3
Received nack credit for flit 31691
Requeued flit 31691
9
Received nack credit for flit 31245
Requeued flit 31245
3
Received nack credit for flit 37365
Requeued flit 37365
1
3
Received nack credit for flit 38021
Requeued flit 38021
Received nack credit for flit 37180
Requeued flit 37180
3
1
Received nack credit for flit 41292
Requeued flit 41292
Received nack credit for flit 42057
Requeued flit 42057
13
Received nack credit for flit 40144
Requeued flit 40144
5
Received nack credit for flit 42951
Requeued flit 42951
3
Received nack credit for flit 47381
Requeued flit 47381
1
Received nack credit for flit 50473
Requeued flit 50473
5
Received nack credit for flit 52737
Requeued flit 52737
3
Received nack credit for flit 54415
Requeued flit 54415
6
Received nack credit for flit 53647
Requeued flit 53647
1
Received nack credit for flit 58258
Requeued flit 58258
5
Received nack credit for flit 56871
Requeued flit 56871
1
Received nack credit for flit 59249
Requeued flit 59249
5
Received nack credit for flit 62432
Requeued flit 62432
2
Received nack credit for flit 66208
Requeued flit 66208
10
Received nack credit for flit 66258
Requeued flit 66258
2
Received nack credit for flit 70602
Requeued flit 70602
1
1
Received nack credit for flit 74834
Requeued flit 74834
Received nack credit for flit 74402
Requeued flit 74402
3
Received nack credit for flit 75166
Requeued flit 75166
1
Received nack credit for flit 75722
Requeued flit 75722
5
Received nack credit for flit 75214
Requeued flit 75214
9
Received nack credit for flit 76221
Requeued flit 76221
1
Received nack credit for flit 78245
Requeued flit 78245
8
Received nack credit for flit 80825
Requeued flit 80825
1
Received nack credit for flit 82523
Requeued flit 82523
1
Received nack credit for flit 82868
Requeued flit 82868
1
Received nack credit for flit 85533
Requeued flit 85533
2
Received nack credit for flit 85873
Requeued flit 85873
9
Received nack credit for flit 82765
Requeued flit 82765
1
Received nack credit for flit 87042
Requeued flit 87042
1
Received nack credit for flit 87570
Requeued flit 87570
2
Received nack credit for flit 91184
Requeued flit 91184
2
Received nack credit for flit 90113
Requeued flit 90113
4
1
Received nack credit for flit 91272
Requeued flit 91272
Received nack credit for flit 92085
Requeued flit 92085
1
Received nack credit for flit 92703
Requeued flit 92703
3
Received nack credit for flit 97381
Requeued flit 97381
7
Received nack credit for flit 101585
Requeued flit 101585
2
Received nack credit for flit 105952
Requeued flit 105952
1
Received nack credit for flit 110678
Requeued flit 110678
3
Received nack credit for flit 110311
Requeued flit 110311
5
Received nack credit for flit 110973
Requeued flit 110973
5
Received nack credit for flit 111079
Requeued flit 111079
1
Received nack credit for flit 114156
Requeued flit 114156
3
Received nack credit for flit 115594
Requeued flit 115594
3
Received nack credit for flit 115289
Requeued flit 115289
4
Received nack credit for flit 115777
Requeued flit 115777
3
Received nack credit for flit 116760
Requeued flit 116760
1
Received nack credit for flit 121417
Requeued flit 121417
5
Received nack credit for flit 121493
Requeued flit 121493
1
Received nack credit for flit 124163
Requeued flit 124163
1
Received nack credit for flit 126039
Requeued flit 126039
4
Received nack credit for flit 127882
Requeued flit 127882
3
2
Received nack credit for flit 130351
Requeued flit 130351
Received nack credit for flit 131470
Requeued flit 131470
1
Received nack credit for flit 131583
Requeued flit 131583
2
Received nack credit for flit 133190
Requeued flit 133190
3
Received nack credit for flit 137230
Requeued flit 137230
5
Received nack credit for flit 135900
Requeued flit 135900
1
Received nack credit for flit 141689
Requeued flit 141689
1
1
Received nack credit for flit 142723
Requeued flit 142723
Received nack credit for flit 143300
Requeued flit 143300
4
Received nack credit for flit 143775
Requeued flit 143775
1
Received nack credit for flit 146117
Requeued flit 146117
1
Received nack credit for flit 146530
Requeued flit 146530
2
Received nack credit for flit 150365
Requeued flit 150365
3
Received nack credit for flit 148060
Requeued flit 148060
7
Received nack credit for flit 152360
Requeued flit 152360
4
Received nack credit for flit 153792
Requeued flit 153792
3
Received nack credit for flit 154877
Requeued flit 154877
2
Received nack credit for flit 155578
Requeued flit 155578
1
Received nack credit for flit 157797
Requeued flit 157797
1
Received nack credit for flit 159514
Requeued flit 159514
1
Received nack credit for flit 161040
Requeued flit 161040
12
Received nack credit for flit 160418
Requeued flit 160418
3
Received nack credit for flit 163250
Requeued flit 163250
7
5
Received nack credit for flit 162290
Requeued flit 162290
Received nack credit for flit 161980
Requeued flit 161980
6
Received nack credit for flit 163497
Requeued flit 163497
1
Received nack credit for flit 166087
Requeued flit 166087
1
Received nack credit for flit 168262
Requeued flit 168262
1
Received nack credit for flit 168478
Requeued flit 168478
7
Received nack credit for flit 164525
Requeued flit 164525
4
Received nack credit for flit 172208
Requeued flit 172208
5
Received nack credit for flit 170182
Requeued flit 170182
1
4
1
Received nack credit for flit 178713
Requeued flit 178713
5
Received nack credit for flit 174034
Requeued flit 174034
Received nack credit for flit 177512
Requeued flit 177512
Received nack credit for flit 178925
Requeued flit 178925
2
Received nack credit for flit 179420
Requeued flit 179420
6
Received nack credit for flit 176379
Requeued flit 176379
2
Received nack credit for flit 181771
Requeued flit 181771
6
Received nack credit for flit 181877
Requeued flit 181877
1
Received nack credit for flit 183744
Requeued flit 183744
8
Received nack credit for flit 180828
Requeued flit 180828
4
Received nack credit for flit 185688
Requeued flit 185688
8
Received nack credit for flit 190796
Requeued flit 190796
1
Received nack credit for flit 194776
Requeued flit 194776
6
Received nack credit for flit 192090
Requeued flit 192090
1
Received nack credit for flit 195685
Requeued flit 195685
3
Received nack credit for flit 196795
Requeued flit 196795
3
5
Received nack credit for flit 198680
Requeued flit 198680
5
Received nack credit for flit 199195
Requeued flit 199195
Received nack credit for flit 198168
Requeued flit 198168
2
Received nack credit for flit 200641
Requeued flit 200641
10
Received nack credit for flit 196201
Requeued flit 196201
10
Received nack credit for flit 199837
Requeued flit 199837
3
Received nack credit for flit 203519
Requeued flit 203519
1
Received nack credit for flit 203997
Requeued flit 203997
3
Received nack credit for flit 205651
Requeued flit 205651
2
6
Received nack credit for flit 206713
Requeued flit 206713
Received nack credit for flit 206461
Requeued flit 206461
3
Received nack credit for flit 208835
Requeued flit 208835
2
Received nack credit for flit 209421
Requeued flit 209421
5
Received nack credit for flit 209306
Requeued flit 209306
4
Received nack credit for flit 210668
Requeued flit 210668
1
Received nack credit for flit 212778
Requeued flit 212778
3
Received nack credit for flit 213294
Requeued flit 213294
1
Received nack credit for flit 214329
Requeued flit 214329
1
Received nack credit for flit 219454
Requeued flit 219454
2
Received nack credit for flit 220156
Requeued flit 220156
4
Received nack credit for flit 222187
Requeued flit 222187
4
1
Received nack credit for flit 222263
Requeued flit 222263
Received nack credit for flit 224443
Requeued flit 224443
4
Received nack credit for flit 226005
Requeued flit 226005
1
Received nack credit for flit 226559
Requeued flit 226559
4
Received nack credit for flit 225375
Requeued flit 225375
1
Received nack credit for flit 227168
Requeued flit 227168
5
Received nack credit for flit 228681
Requeued flit 228681
2
Received nack credit for flit 229265
Requeued flit 229265
6
Received nack credit for flit 231320
Requeued flit 231320
1
Received nack credit for flit 236265
Requeued flit 236265
8
Received nack credit for flit 242067
Requeued flit 242067
1
Received nack credit for flit 245364
Requeued flit 245364
3
Received nack credit for flit 244168
Requeued flit 244168
1
2
Received nack credit for flit 248123
Requeued flit 248123
Received nack credit for flit 248166
Requeued flit 248166
4
3
Received nack credit for flit 249441
Requeued flit 249441
Received nack credit for flit 249587
Requeued flit 249587
1
Received nack credit for flit 250575
Requeued flit 250575
2
Received nack credit for flit 252179
Requeued flit 252179
3
Received nack credit for flit 250408
Requeued flit 250408
2
Received nack credit for flit 253991
Requeued flit 253991
1
Received nack credit for flit 255214
Requeued flit 255214
1
Received nack credit for flit 255955
Requeued flit 255955
1
Received nack credit for flit 258169
Requeued flit 258169
4
Received nack credit for flit 257819
Requeued flit 257819
2
Received nack credit for flit 262430
Requeued flit 262430
4
Received nack credit for flit 262988
Requeued flit 262988
6
Received nack credit for flit 262964
Requeued flit 262964
1
Received nack credit for flit 266254
Requeued flit 266254
2
Received nack credit for flit 267954
Requeued flit 267954
8
9
Received nack credit for flit 267278
Requeued flit 267278
Received nack credit for flit 267227
Requeued flit 267227
3
Received nack credit for flit 272655
Requeued flit 272655
8
Received nack credit for flit 274027
Requeued flit 274027
9
Received nack credit for flit 275191
Requeued flit 275191
4
3
12
Received nack credit for flit 275455
Requeued flit 275455
Received nack credit for flit 277180
Requeued flit 277180
Received nack credit for flit 270759
Requeued flit 270759
5
Received nack credit for flit 280769
Requeued flit 280769
1
3
Received nack credit for flit 282083
Requeued flit 282083
Received nack credit for flit 279840
Requeued flit 279840
1
Received nack credit for flit 283142
Requeued flit 283142
1
3
Received nack credit for flit 283425
Requeued flit 283425
Received nack credit for flit 283382
Requeued flit 283382
6
Received nack credit for flit 282848
Requeued flit 282848
5
Received nack credit for flit 285875
Requeued flit 285875
1
Received nack credit for flit 287620
Requeued flit 287620
4
Received nack credit for flit 289020
Requeued flit 289020
1
Received nack credit for flit 293561
Requeued flit 293561
6
Received nack credit for flit 294098
Requeued flit 294098
1
Received nack credit for flit 297729
Requeued flit 297729
4
Received nack credit for flit 296979
Requeued flit 296979
1
Received nack credit for flit 299385
Requeued flit 299385
1
Received nack credit for flit 301330
Requeued flit 301330
1
Received nack credit for flit 301783
Requeued flit 301783
2
Received nack credit for flit 301197
Requeued flit 301197
6
Received nack credit for flit 301880
Requeued flit 301880
1
Received nack credit for flit 307260
Requeued flit 307260
1
Received nack credit for flit 311722
Requeued flit 311722
5
Received nack credit for flit 310053
Requeued flit 310053
Class 0:
Packet latency average = 62.9423
	minimum = 5
	maximum = 351
Network latency average = 62.9423
	minimum = 5
	maximum = 351
Slowest packet = 296185
Flit latency average = 62.9423
	minimum = 5
	maximum = 351
Slowest flit = 296185
Fragmentation average = 0
	minimum = 0
	maximum = 0
Injected packet rate average = 0.499242
	minimum = 0.4874 (at node 2)
	maximum = 0.5104 (at node 36)
Accepted packet rate average = 0.495527
	minimum = 0.4799 (at node 21)
	maximum = 0.5089 (at node 28)
Injected flit rate average = 0.499242
	minimum = 0.4874 (at node 2)
	maximum = 0.5104 (at node 36)
Accepted flit rate average= 0.495527
	minimum = 0.4799 (at node 21)
	maximum = 0.5089 (at node 28)
Injected packet length average = 1
Accepted packet length average = 1
Total in-flight flits = 2378 (0 measured)
latency change    = 1
throughput change = 1
2
Received nack credit for flit 322279
Requeued flit 322279
1
Received nack credit for flit 323815
Requeued flit 323815
4
Received nack credit for flit 321819
Requeued flit 321819
5
Received nack credit for flit 328763
Requeued flit 328763
4
Received nack credit for flit 327655
Requeued flit 327655
3
Received nack credit for flit 330366
Requeued flit 330366
7
Received nack credit for flit 327900
Requeued flit 327900
3
Received nack credit for flit 331399
Requeued flit 331399
4
Received nack credit for flit 334790
Requeued flit 334790
2
Received nack credit for flit 336742
Requeued flit 336742
2
Received nack credit for flit 337553
Requeued flit 337553
12
Received nack credit for flit 339748
Requeued flit 339748
9
Received nack credit for flit 339178
Requeued flit 339178
2
Received nack credit for flit 347056
Requeued flit 347056
6
Received nack credit for flit 343950
Requeued flit 343950
1
Received nack credit for flit 349610
Requeued flit 349610
8
Received nack credit for flit 351196
Requeued flit 351196
4
Received nack credit for flit 357130
Requeued flit 357130
1
Received nack credit for flit 358646
Requeued flit 358646
3
Received nack credit for flit 358539
Requeued flit 358539
4
Received nack credit for flit 357406
Requeued flit 357406
4
7
Received nack credit for flit 357502
Requeued flit 357502
Received nack credit for flit 356990
Requeued flit 356990
1
Received nack credit for flit 360775
Requeued flit 360775
11
Received nack credit for flit 358808
Requeued flit 358808
2
Received nack credit for flit 362850
Requeued flit 362850
1
Received nack credit for flit 362271
Requeued flit 362271
4
Received nack credit for flit 363014
Requeued flit 363014
5
Received nack credit for flit 363992
Requeued flit 363992
2
Received nack credit for flit 368736
Requeued flit 368736
4
Received nack credit for flit 368933
Requeued flit 368933
3
3
Received nack credit for flit 374015
Requeued flit 374015
Received nack credit for flit 374014
Requeued flit 374014
5
1
Received nack credit for flit 375487
Requeued flit 375487
Received nack credit for flit 377334
Requeued flit 377334
4
Received nack credit for flit 377374
Requeued flit 377374
7
Received nack credit for flit 374255
Requeued flit 374255
1
Received nack credit for flit 383024
Requeued flit 383024
1
2
Received nack credit for flit 386626
Requeued flit 386626
Received nack credit for flit 386677
Requeued flit 386677
6
Received nack credit for flit 391975
Requeued flit 391975
1
Received nack credit for flit 394258
Requeued flit 394258
6
Received nack credit for flit 389956
Requeued flit 389956
5
Received nack credit for flit 393252
Requeued flit 393252
3
Received nack credit for flit 399034
Requeued flit 399034
1
Received nack credit for flit 402919
Requeued flit 402919
5
Received nack credit for flit 402301
Requeued flit 402301
2
Received nack credit for flit 405033
Requeued flit 405033
6
5
Received nack credit for flit 401834
Requeued flit 401834
Received nack credit for flit 405250
Requeued flit 405250
1
Received nack credit for flit 409015
Requeued flit 409015
9
Received nack credit for flit 406996
Requeued flit 406996
1
Received nack credit for flit 408442
Requeued flit 408442
4
Received nack credit for flit 410292
Requeued flit 410292
2
Received nack credit for flit 410826
Requeued flit 410826
6
Received nack credit for flit 411088
Requeued flit 411088
5
Received nack credit for flit 412575
Requeued flit 412575
1
Received nack credit for flit 412949
Requeued flit 412949
1
Received nack credit for flit 417718
Requeued flit 417718
3
Received nack credit for flit 422760
Requeued flit 422760
4
Received nack credit for flit 425372
Requeued flit 425372
3
Received nack credit for flit 430787
Requeued flit 430787
6
Received nack credit for flit 430132
Requeued flit 430132
5
1
Received nack credit for flit 437993
Requeued flit 437993
Received nack credit for flit 441570
Requeued flit 441570
9
Received nack credit for flit 438454
Requeued flit 438454
2
Received nack credit for flit 443546
Requeued flit 443546
1
Received nack credit for flit 446673
Requeued flit 446673
5
Received nack credit for flit 451218
Requeued flit 451218
7
Received nack credit for flit 451054
Requeued flit 451054
8
Received nack credit for flit 449099
Requeued flit 449099
3
Received nack credit for flit 458462
Requeued flit 458462
1
Received nack credit for flit 461562
Requeued flit 461562
1
Received nack credit for flit 462434
Requeued flit 462434
6
Received nack credit for flit 463835
Requeued flit 463835
1
Received nack credit for flit 465765
Requeued flit 465765
7
7
Received nack credit for flit 459296
Requeued flit 459296
Received nack credit for flit 461524
Requeued flit 461524
4
Received nack credit for flit 466511
Requeued flit 466511
1
Received nack credit for flit 474158
Requeued flit 474158
2
Received nack credit for flit 478798
Requeued flit 478798
1
Received nack credit for flit 480065
Requeued flit 480065
4
Received nack credit for flit 484761
Requeued flit 484761
1
Received nack credit for flit 492373
Requeued flit 492373
1
Received nack credit for flit 493066
Requeued flit 493066
3
Received nack credit for flit 494548
Requeued flit 494548
2
Received nack credit for flit 494897
Requeued flit 494897
3
Received nack credit for flit 495458
Requeued flit 495458
1
Received nack credit for flit 501958
Requeued flit 501958
13
Received nack credit for flit 503576
Requeued flit 503576
1
Received nack credit for flit 508614
Requeued flit 508614
6
Received nack credit for flit 508433
Requeued flit 508433
1
Received nack credit for flit 512216
Requeued flit 512216
3
Received nack credit for flit 513417
Requeued flit 513417
1
Received nack credit for flit 513886
Requeued flit 513886
1
1
Received nack credit for flit 515189
Requeued flit 515189
Received nack credit for flit 514786
Requeued flit 514786
5
Received nack credit for flit 513490
Requeued flit 513490
5
5
Received nack credit for flit 514175
Requeued flit 514175
Received nack credit for flit 515668
Requeued flit 515668
4
Received nack credit for flit 518477
Requeued flit 518477
1
Received nack credit for flit 521678
Requeued flit 521678
3
Received nack credit for flit 522558
Requeued flit 522558
3
Received nack credit for flit 526002
Requeued flit 526002
6
Received nack credit for flit 525280
Requeued flit 525280
3
Received nack credit for flit 526893
Requeued flit 526893
2
Received nack credit for flit 525982
Requeued flit 525982
1
Received nack credit for flit 528960
Requeued flit 528960
3
Received nack credit for flit 528285
Requeued flit 528285
3
Received nack credit for flit 530591
Requeued flit 530591
6
Received nack credit for flit 526159
Requeued flit 526159
4
Received nack credit for flit 531706
Requeued flit 531706
1
Received nack credit for flit 535268
Requeued flit 535268
5
Received nack credit for flit 535586
Requeued flit 535586
2
Received nack credit for flit 541430
Requeued flit 541430
6
Received nack credit for flit 540179
Requeued flit 540179
1
Received nack credit for flit 544549
Requeued flit 544549
6
Received nack credit for flit 538251
Requeued flit 538251
7
Received nack credit for flit 548323
Requeued flit 548323
10
4
Received nack credit for flit 555175
Requeued flit 555175
Received nack credit for flit 555719
Requeued flit 555719
5
Received nack credit for flit 554409
Requeued flit 554409
5
Received nack credit for flit 555149
Requeued flit 555149
1
Received nack credit for flit 557075
Requeued flit 557075
4
Received nack credit for flit 559964
Requeued flit 559964
1
Received nack credit for flit 561499
Requeued flit 561499
6
Received nack credit for flit 559107
Requeued flit 559107
9
Received nack credit for flit 558557
Requeued flit 558557
1
Received nack credit for flit 569700
Requeued flit 569700
1
7
Received nack credit for flit 574468
Requeued flit 574468
Received nack credit for flit 569686
Requeued flit 569686
2
Received nack credit for flit 577150
Requeued flit 577150
1
Received nack credit for flit 577387
Requeued flit 577387
3
Received nack credit for flit 578619
Requeued flit 578619
5
Received nack credit for flit 579190
Requeued flit 579190
1
Received nack credit for flit 577885
Requeued flit 577885
4
4
Received nack credit for flit 585002
Requeued flit 585002
Received nack credit for flit 579176
Requeued flit 579176
1
Received nack credit for flit 589222
Requeued flit 589222
3
Received nack credit for flit 590579
Requeued flit 590579
2
Received nack credit for flit 591500
Requeued flit 591500
4
Received nack credit for flit 590502
Requeued flit 590502
4
Received nack credit for flit 593621
Requeued flit 593621
1
Received nack credit for flit 594048
Requeued flit 594048
1
Received nack credit for flit 594941
Requeued flit 594941
5
Received nack credit for flit 596133
Requeued flit 596133
6
Received nack credit for flit 596129
Requeued flit 596129
2
Received nack credit for flit 600963
Requeued flit 600963
4
Received nack credit for flit 599393
Requeued flit 599393
9
Received nack credit for flit 600993
Requeued flit 600993
1
Received nack credit for flit 607004
Requeued flit 607004
1
Received nack credit for flit 609267
Requeued flit 609267
2
Received nack credit for flit 612483
Requeued flit 612483
6
Received nack credit for flit 610146
Requeued flit 610146
3
Received nack credit for flit 610544
Requeued flit 610544
5
Received nack credit for flit 610121
Requeued flit 610121
9
Received nack credit for flit 609276
Requeued flit 609276
1
Received nack credit for flit 617118
Requeued flit 617118
8
Received nack credit for flit 619932
Requeued flit 619932
2
Received nack credit for flit 619954
Requeued flit 619954
9
6
Received nack credit for flit 622192
Requeued flit 622192
Received nack credit for flit 621092
Requeued flit 621092
3
Received nack credit for flit 627926
Requeued flit 627926
1
Received nack credit for flit 630087
Requeued flit 630087
2
Received nack credit for flit 630766
Requeued flit 630766
9
Received nack credit for flit 627368
Requeued flit 627368
1
Received nack credit for flit 632900
Requeued flit 632900
5
Received nack credit for flit 632699
Requeued flit 632699
Class 0:
Packet latency average = 81.0825
	minimum = 5
	maximum = 524
Network latency average = 81.0825
	minimum = 5
	maximum = 524
Slowest packet = 554565
Flit latency average = 81.0825
	minimum = 5
	maximum = 524
Slowest flit = 554565
Fragmentation average = 0
	minimum = 0
	maximum = 0
Injected packet rate average = 0.499615
	minimum = 0.4904 (at node 39)
	maximum = 0.50935 (at node 21)
Accepted packet rate average = 0.496519
	minimum = 0.48535 (at node 21)
	maximum = 0.5079 (at node 39)
Injected flit rate average = 0.499615
	minimum = 0.4904 (at node 39)
	maximum = 0.50935 (at node 21)
Accepted flit rate average= 0.496519
	minimum = 0.48535 (at node 21)
	maximum = 0.5079 (at node 39)
Injected packet length average = 1
Accepted packet length average = 1
Total in-flight flits = 3963 (0 measured)
latency change    = 0.223725
throughput change = 0.00199829
1
Received nack credit for flit 640219
Requeued flit 640219
2
Received nack credit for flit 643936
Requeued flit 643936
3
3
Received nack credit for flit 644099
Requeued flit 644099
Received nack credit for flit 643936
Requeued flit 643936
7
Received nack credit for flit 638287
Requeued flit 638287
8
Received nack credit for flit 646398
Requeued flit 646398
5
2
Received nack credit for flit 643939
Requeued flit 643939
Received nack credit for flit 641895
Requeued flit 641895
1
Received nack credit for flit 649872
Requeued flit 649872
8
Received nack credit for flit 650517
Requeued flit 650517
3
Received nack credit for flit 653605
Requeued flit 653605
9
Received nack credit for flit 650619
Requeued flit 650619
1
Received nack credit for flit 655291
Requeued flit 655291
1
Received nack credit for flit 659137
Requeued flit 659137
2
Received nack credit for flit 659339
Requeued flit 659339
1
Received nack credit for flit 655696
Requeued flit 655696
6
Received nack credit for flit 656731
Requeued flit 656731
4
Received nack credit for flit 659038
Requeued flit 659038
1
Received nack credit for flit 667693
Requeued flit 667693
3
Received nack credit for flit 668002
Requeued flit 668002
2
3
Received nack credit for flit 672989
Requeued flit 672989
Received nack credit for flit 673221
Requeued flit 673221
4
Received nack credit for flit 670004
Requeued flit 670004
2
Received nack credit for flit 677018
Requeued flit 677018
3
Received nack credit for flit 679013
Requeued flit 679013
4
Received nack credit for flit 674588
Requeued flit 674588
1
Received nack credit for flit 681771
Requeued flit 681771
2
Received nack credit for flit 683685
Requeued flit 683685
3
Received nack credit for flit 686057
Requeued flit 686057
4
Received nack credit for flit 685997
Requeued flit 685997
4
6
Received nack credit for flit 681518
Requeued flit 681518
Received nack credit for flit 684281
Requeued flit 684281
1
Received nack credit for flit 687958
Requeued flit 687958
1
Received nack credit for flit 686317
Requeued flit 686317
1
Received nack credit for flit 689522
Requeued flit 689522
1
Received nack credit for flit 691683
Requeued flit 691683
1
Received nack credit for flit 692316
Requeued flit 692316
8
Received nack credit for flit 687104
Requeued flit 687104
1
7
Received nack credit for flit 695744
Requeued flit 695744
Received nack credit for flit 687054
Requeued flit 687054
1
Received nack credit for flit 696936
Requeued flit 696936
3
Received nack credit for flit 689272
Requeued flit 689272
2
Received nack credit for flit 698193
Requeued flit 698193
10
Received nack credit for flit 695872
Requeued flit 695872
1
Received nack credit for flit 702484
Requeued flit 702484
3
Received nack credit for flit 702738
Requeued flit 702738
1
Received nack credit for flit 705179
Requeued flit 705179
7
1
Received nack credit for flit 704790
Requeued flit 704790
Received nack credit for flit 709164
Requeued flit 709164
5
Received nack credit for flit 706484
Requeued flit 706484
3
Received nack credit for flit 712275
Requeued flit 712275
1
Received nack credit for flit 713350
Requeued flit 713350
2
Received nack credit for flit 713686
Requeued flit 713686
5
Received nack credit for flit 712548
Requeued flit 712548
2
Received nack credit for flit 716443
Requeued flit 716443
9
Received nack credit for flit 716036
Requeued flit 716036
1
Received nack credit for flit 721522
Requeued flit 721522
1
Received nack credit for flit 724441
Requeued flit 724441
5
Received nack credit for flit 719822
Requeued flit 719822
1
4
Received nack credit for flit 725785
Requeued flit 725785
Received nack credit for flit 722263
Requeued flit 722263
6
Received nack credit for flit 719941
Requeued flit 719941
1
1
Received nack credit for flit 728361
Requeued flit 728361
Received nack credit for flit 728537
Requeued flit 728537
4
Received nack credit for flit 731338
Requeued flit 731338
1
4
Received nack credit for flit 733667
Requeued flit 733667
Received nack credit for flit 733221
Requeued flit 733221
1
Received nack credit for flit 736135
Requeued flit 736135
1
11
Received nack credit for flit 738419
Requeued flit 738419
Received nack credit for flit 734272
Requeued flit 734272
6
9
Received nack credit for flit 735897
Requeued flit 735897
Received nack credit for flit 732142
Requeued flit 732142
10
Received nack credit for flit 729672
Requeued flit 729672
1
Received nack credit for flit 743018
Requeued flit 743018
1
Received nack credit for flit 743232
Requeued flit 743232
2
Received nack credit for flit 738772
Requeued flit 738772
8
Received nack credit for flit 740008
Requeued flit 740008
5
Received nack credit for flit 744029
Requeued flit 744029
5
Received nack credit for flit 744787
Requeued flit 744787
8
Received nack credit for flit 744742
Requeued flit 744742
2
Received nack credit for flit 748762
Requeued flit 748762
3
Received nack credit for flit 747912
Requeued flit 747912
3
Received nack credit for flit 750110
Requeued flit 750110
7
Received nack credit for flit 739854
Requeued flit 739854
1
Received nack credit for flit 756974
Requeued flit 756974
1
Received nack credit for flit 757827
Requeued flit 757827
1
Received nack credit for flit 759607
Requeued flit 759607
1
Received nack credit for flit 764209
Requeued flit 764209
1
Received nack credit for flit 764499
Requeued flit 764499
3
Received nack credit for flit 756242
Requeued flit 756242
1
Received nack credit for flit 767325
Requeued flit 767325
10
Received nack credit for flit 758090
Requeued flit 758090
7
Received nack credit for flit 764744
Requeued flit 764744
5
Received nack credit for flit 765381
Requeued flit 765381
4
Received nack credit for flit 771395
Requeued flit 771395
6
Received nack credit for flit 767667
Requeued flit 767667
3
Received nack credit for flit 767709
Requeued flit 767709
1
3
Received nack credit for flit 774919
Requeued flit 774919
Received nack credit for flit 775480
Requeued flit 775480
6
Received nack credit for flit 771842
Requeued flit 771842
1
Received nack credit for flit 778537
Requeued flit 778537
4
Received nack credit for flit 776571
Requeued flit 776571
7
Received nack credit for flit 773179
Requeued flit 773179
1
Received nack credit for flit 781095
Requeued flit 781095
1
Received nack credit for flit 785750
Requeued flit 785750
1
Received nack credit for flit 791011
Requeued flit 791011
1
5
Received nack credit for flit 793380
Requeued flit 793380
Received nack credit for flit 787565
Requeued flit 787565
1
Received nack credit for flit 796683
Requeued flit 796683
7
Received nack credit for flit 789983
Requeued flit 789983
2
Received nack credit for flit 799986
Requeued flit 799986
1
Received nack credit for flit 801443
Requeued flit 801443
2
Received nack credit for flit 800947
Requeued flit 800947
8
Received nack credit for flit 796080
Requeued flit 796080
3
Received nack credit for flit 799766
Requeued flit 799766
5
Received nack credit for flit 809326
Requeued flit 809326
4
Received nack credit for flit 811832
Requeued flit 811832
1
Received nack credit for flit 815425
Requeued flit 815425
4
Received nack credit for flit 819750
Requeued flit 819750
4
Received nack credit for flit 820792
Requeued flit 820792
2
Received nack credit for flit 822096
Requeued flit 822096
5
Received nack credit for flit 818530
Requeued flit 818530
3
Received nack credit for flit 831218
Requeued flit 831218
1
Received nack credit for flit 834509
Requeued flit 834509
1
Received nack credit for flit 839498
Requeued flit 839498
1
Received nack credit for flit 838081
Requeued flit 838081
3
3
Received nack credit for flit 839393
Requeued flit 839393
Received nack credit for flit 842493
Requeued flit 842493
3
7
Received nack credit for flit 831063
Requeued flit 831063
Received nack credit for flit 836546
Requeued flit 836546
2
Received nack credit for flit 843701
Requeued flit 843701
4
Received nack credit for flit 844057
Requeued flit 844057
1
Received nack credit for flit 846907
Requeued flit 846907
1
Received nack credit for flit 847326
Requeued flit 847326
3
Received nack credit for flit 847868
Requeued flit 847868
6
Received nack credit for flit 845886
Requeued flit 845886
4
Received nack credit for flit 847365
Requeued flit 847365
1
Received nack credit for flit 852847
Requeued flit 852847
6
Received nack credit for flit 854350
Requeued flit 854350
1
Received nack credit for flit 855147
Requeued flit 855147
6
Received nack credit for flit 850008
Requeued flit 850008
3
Received nack credit for flit 863423
Requeued flit 863423
3
3
Received nack credit for flit 864147
Requeued flit 864147
Received nack credit for flit 864131
Requeued flit 864131
2
Received nack credit for flit 865971
Requeued flit 865971
1
Received nack credit for flit 867228
Requeued flit 867228
2
Received nack credit for flit 867516
Requeued flit 867516
1
Received nack credit for flit 867755
Requeued flit 867755
1
3
Received nack credit for flit 861441
Requeued flit 861441
Received nack credit for flit 868183
Requeued flit 868183
4
1
Received nack credit for flit 867275
Requeued flit 867275
Received nack credit for flit 869598
Requeued flit 869598
3
Received nack credit for flit 869422
Requeued flit 869422
5
Received nack credit for flit 872767
Requeued flit 872767
1
Received nack credit for flit 879775
Requeued flit 879775
3
Received nack credit for flit 879738
Requeued flit 879738
9
Received nack credit for flit 882311
Requeued flit 882311
1
Received nack credit for flit 885584
Requeued flit 885584
3
Received nack credit for flit 887921
Requeued flit 887921
1
Received nack credit for flit 889158
Requeued flit 889158
3
Received nack credit for flit 884268
Requeued flit 884268
1
Received nack credit for flit 891222
Requeued flit 891222
1
Received nack credit for flit 891812
Requeued flit 891812
6
Received nack credit for flit 894337
Requeued flit 894337
3
Received nack credit for flit 892783
Requeued flit 892783
1
Received nack credit for flit 897284
Requeued flit 897284
3
Received nack credit for flit 894939
Requeued flit 894939
1
Received nack credit for flit 898147
Requeued flit 898147
1
Received nack credit for flit 900063
Requeued flit 900063
1
4
Received nack credit for flit 901044
Requeued flit 901044
Received nack credit for flit 900760
Requeued flit 900760
1
Received nack credit for flit 902035
Requeued flit 902035
1
Received nack credit for flit 906036
Requeued flit 906036
1
3
Received nack credit for flit 906369
Requeued flit 906369
Received nack credit for flit 902356
Requeued flit 902356
2
Received nack credit for flit 906005
Requeued flit 906005
1
Received nack credit for flit 909017
Requeued flit 909017
7
Received nack credit for flit 898807
Requeued flit 898807
1
Received nack credit for flit 905987
Requeued flit 905987
3
Received nack credit for flit 911571
Requeued flit 911571
3
4
Received nack credit for flit 909120
Requeued flit 909120
3
Received nack credit for flit 912534
Requeued flit 912534
Received nack credit for flit 912652
Requeued flit 912652
6
Received nack credit for flit 910624
Requeued flit 910624
5
Received nack credit for flit 910372
Requeued flit 910372
6
Received nack credit for flit 907120
Requeued flit 907120
10
Received nack credit for flit 908712
Requeued flit 908712
4
Received nack credit for flit 912284
Requeued flit 912284
2
Received nack credit for flit 920663
Requeued flit 920663
6
Received nack credit for flit 913602
Requeued flit 913602
3
Received nack credit for flit 919724
Requeued flit 919724
1
Received nack credit for flit 936108
Requeued flit 936108
1
Received nack credit for flit 931680
Requeued flit 931680
1
Received nack credit for flit 940809
Requeued flit 940809
1
Received nack credit for flit 946663
Requeued flit 946663
5
Received nack credit for flit 943592
Requeued flit 943592
4
Received nack credit for flit 948329
Requeued flit 948329
2
Received nack credit for flit 950301
Requeued flit 950301
1
5
Received nack credit for flit 948478
Requeued flit 948478
Received nack credit for flit 952803
Requeued flit 952803
3
Received nack credit for flit 953841
Requeued flit 953841
4
Received nack credit for flit 953483
Requeued flit 953483
2
Received nack credit for flit 955511
Requeued flit 955511
4
Received nack credit for flit 954870
Requeued flit 954870
5
6
Received nack credit for flit 954290
Requeued flit 954290
Received nack credit for flit 951699
Requeued flit 951699
Class 0:
Packet latency average = 146.728
	minimum = 5
	maximum = 730
Network latency average = 146.728
	minimum = 5
	maximum = 730
Slowest packet = 689272
Flit latency average = 146.728
	minimum = 5
	maximum = 730
Slowest flit = 689272
Fragmentation average = 0
	minimum = 0
	maximum = 0
Injected packet rate average = 0.500059
	minimum = 0.489 (at node 27)
	maximum = 0.5119 (at node 61)
Accepted packet rate average = 0.497581
	minimum = 0.4815 (at node 4)
	maximum = 0.5136 (at node 15)
Injected flit rate average = 0.500059
	minimum = 0.489 (at node 27)
	maximum = 0.5119 (at node 61)
Accepted flit rate average= 0.497581
	minimum = 0.4815 (at node 4)
	maximum = 0.5136 (at node 15)
Injected packet length average = 1
Accepted packet length average = 1
Total in-flight flits = 5549 (0 measured)
latency change    = 0.447394
throughput change = 0.00213533
Warmed up ...Time used is 30000 cycles
2
Received nack credit for flit 956709
Requeued flit 956709
6
Received nack credit for flit 960125
Requeued flit 960125
7
Received nack credit for flit 957422
Requeued flit 957422
2
Received nack credit for flit 960368
Requeued flit 960368
2
Received nack credit for flit 967847
Requeued flit 967847
1
Received nack credit for flit 969773
Requeued flit 969773
1
Received nack credit for flit 971993
Requeued flit 971993
4
Received nack credit for flit 966945
Requeued flit 966945
7
Received nack credit for flit 972807
Requeued flit 972807
1
Received nack credit for flit 977285
Requeued flit 977285
4
Received nack credit for flit 974226
Requeued flit 974226
1
Received nack credit for flit 979817
Requeued flit 979817
8
Received nack credit for flit 976116
Requeued flit 976116
3
Received nack credit for flit 976959
Requeued flit 976959
1
Received nack credit for flit 982304
Requeued flit 982304
3
Received nack credit for flit 988470
Requeued flit 988470
8
1
Received nack credit for flit 984936
Requeued flit 984936
Received nack credit for flit 984701
Requeued flit 984701
9
Received nack credit for flit 984127
Requeued flit 984127
3
4
Received nack credit for flit 980367
Requeued flit 980367
Received nack credit for flit 984720
Requeued flit 984720
1
Received nack credit for flit 993190
Requeued flit 993190
1
Received nack credit for flit 995309
Requeued flit 995309
1
Received nack credit for flit 997768
Requeued flit 997768
7
Received nack credit for flit 991417
Requeued flit 991417
1
Received nack credit for flit 1000253
Requeued flit 1000253
3
Received nack credit for flit 1001668
Requeued flit 1001668
7
Received nack credit for flit 1000297
Requeued flit 1000297
2
Received nack credit for flit 1006184
Requeued flit 1006184
1
Received nack credit for flit 1006994
Requeued flit 1006994
1
Received nack credit for flit 1007390
Requeued flit 1007390
8
Received nack credit for flit 997124
Requeued flit 997124
2
Received nack credit for flit 999894
Requeued flit 999894
7
5
Received nack credit for flit 1006993
Requeued flit 1006993
Received nack credit for flit 999947
Requeued flit 999947
7
Received nack credit for flit 1008157
Requeued flit 1008157
8
Received nack credit for flit 1013093
Requeued flit 1013093
1
Received nack credit for flit 1018130
Requeued flit 1018130
5
Received nack credit for flit 1014046
Requeued flit 1014046
2
Received nack credit for flit 1016628
Requeued flit 1016628
1
Received nack credit for flit 1022678
Requeued flit 1022678
1
Received nack credit for flit 1023545
Requeued flit 1023545
1
Received nack credit for flit 1024568
Requeued flit 1024568
2
Received nack credit for flit 1027023
Requeued flit 1027023
6
Received nack credit for flit 1026732
Requeued flit 1026732
1
Received nack credit for flit 1025249
Requeued flit 1025249
4
Received nack credit for flit 1028927
Requeued flit 1028927
6
Received nack credit for flit 1025009
Requeued flit 1025009
2
Received nack credit for flit 1033411
Requeued flit 1033411
4
Received nack credit for flit 1022411
Requeued flit 1022411
4
Received nack credit for flit 1029934
Requeued flit 1029934
7
Received nack credit for flit 1030245
Requeued flit 1030245
6
Received nack credit for flit 1032085
Requeued flit 1032085
4
Received nack credit for flit 1038253
Requeued flit 1038253
6
Received nack credit for flit 1037691
Requeued flit 1037691
5
Received nack credit for flit 1026612
Requeued flit 1026612
1
Received nack credit for flit 1040237
Requeued flit 1040237
4
Received nack credit for flit 1039558
Requeued flit 1039558
1
Received nack credit for flit 1043737
Requeued flit 1043737
2
Received nack credit for flit 1044383
Requeued flit 1044383
1
Received nack credit for flit 1041260
Requeued flit 1041260
6
Received nack credit for flit 1040984
Requeued flit 1040984
3
Received nack credit for flit 1034903
Requeued flit 1034903
2
Received nack credit for flit 1048233
Requeued flit 1048233
1
Received nack credit for flit 1048711
Requeued flit 1048711
3
Received nack credit for flit 1047295
Requeued flit 1047295
2
Received nack credit for flit 1049855
Requeued flit 1049855
4
4
Received nack credit for flit 1041227
Requeued flit 1041227
Received nack credit for flit 1046985
Requeued flit 1046985
3
Received nack credit for flit 1053073
Requeued flit 1053073
5
Received nack credit for flit 1053502
Requeued flit 1053502
4
Received nack credit for flit 1054991
Requeued flit 1054991
3
Received nack credit for flit 1055814
Requeued flit 1055814
2
Received nack credit for flit 1058411
Requeued flit 1058411
3
1
Received nack credit for flit 1059493
Requeued flit 1059493
Received nack credit for flit 1060221
Requeued flit 1060221
2
Received nack credit for flit 1061271
Requeued flit 1061271
1
Received nack credit for flit 1067367
Requeued flit 1067367
2
Received nack credit for flit 1069279
Requeued flit 1069279
1
Received nack credit for flit 1070015
Requeued flit 1070015
2
Received nack credit for flit 1070462
Requeued flit 1070462
2
Received nack credit for flit 1070761
Requeued flit 1070761
6
Received nack credit for flit 1066724
Requeued flit 1066724
1
Received nack credit for flit 1075217
Requeued flit 1075217
5
Received nack credit for flit 1066552
Requeued flit 1066552
1
Received nack credit for flit 1079278
Requeued flit 1079278
1
Received nack credit for flit 1086367
Requeued flit 1086367
3
Received nack credit for flit 1073700
Requeued flit 1073700
7
Received nack credit for flit 1072699
Requeued flit 1072699
1
Received nack credit for flit 1093374
Requeued flit 1093374
5
1
Received nack credit for flit 1087714
Requeued flit 1087714
Received nack credit for flit 1095925
Requeued flit 1095925
4
Received nack credit for flit 1099180
Requeued flit 1099180
5
Received nack credit for flit 1100232
Requeued flit 1100232
2
Received nack credit for flit 1103658
Requeued flit 1103658
8
6
Received nack credit for flit 1101048
Requeued flit 1101048
Received nack credit for flit 1102492
Requeued flit 1102492
5
Received nack credit for flit 1101966
Requeued flit 1101966
2
Received nack credit for flit 1096023
Requeued flit 1096023
1
Received nack credit for flit 1112746
Requeued flit 1112746
1
Received nack credit for flit 1108901
Requeued flit 1108901
12
1
Received nack credit for flit 1094372
Requeued flit 1094372
Received nack credit for flit 1115885
Requeued flit 1115885
6
Received nack credit for flit 1109626
Requeued flit 1109626
2
Received nack credit for flit 1113318
Requeued flit 1113318
2
Received nack credit for flit 1119659
Requeued flit 1119659
1
Received nack credit for flit 1121657
Requeued flit 1121657
8
Received nack credit for flit 1119860
Requeued flit 1119860
7
Received nack credit for flit 1111316
Requeued flit 1111316
1
Received nack credit for flit 1123591
Requeued flit 1123591
1
Received nack credit for flit 1127145
Requeued flit 1127145
1
1
Received nack credit for flit 1128260
Requeued flit 1128260
Received nack credit for flit 1128303
Requeued flit 1128303
2
Received nack credit for flit 1131100
Requeued flit 1131100
2
Received nack credit for flit 1133807
Requeued flit 1133807
7
Received nack credit for flit 1132113
Requeued flit 1132113
1
5
Received nack credit for flit 1135441
Requeued flit 1135441
Received nack credit for flit 1122878
Requeued flit 1122878
7
Received nack credit for flit 1134790
Requeued flit 1134790
3
Received nack credit for flit 1137532
Requeued flit 1137532
6
Received nack credit for flit 1127140
Requeued flit 1127140
2
Received nack credit for flit 1141131
Requeued flit 1141131
3
Received nack credit for flit 1143011
Requeued flit 1143011
3
Received nack credit for flit 1143143
Requeued flit 1143143
7
Received nack credit for flit 1139126
Requeued flit 1139126
7
Received nack credit for flit 1130842
Requeued flit 1130842
9
Received nack credit for flit 1148049
Requeued flit 1148049
2
Received nack credit for flit 1153741
Requeued flit 1153741
2
Received nack credit for flit 1156419
Requeued flit 1156419
1
Received nack credit for flit 1158213
Requeued flit 1158213
1
Received nack credit for flit 1148855
Requeued flit 1148855
1
Received nack credit for flit 1160513
Requeued flit 1160513
2
Received nack credit for flit 1160883
Requeued flit 1160883
10
Received nack credit for flit 1162186
Requeued flit 1162186
4
2
Received nack credit for flit 1154851
Requeued flit 1154851
Received nack credit for flit 1166045
Requeued flit 1166045
7
Received nack credit for flit 1155736
Requeued flit 1155736
10
Received nack credit for flit 1156152
Requeued flit 1156152
4
Received nack credit for flit 1169231
Requeued flit 1169231
7
Received nack credit for flit 1165476
Requeued flit 1165476
7
Received nack credit for flit 1177300
Requeued flit 1177300
5
Received nack credit for flit 1169510
Requeued flit 1169510
4
Received nack credit for flit 1183001
Requeued flit 1183001
2
Received nack credit for flit 1188499
Requeued flit 1188499
1
Received nack credit for flit 1188766
Requeued flit 1188766
1
Received nack credit for flit 1191822
Requeued flit 1191822
1
Received nack credit for flit 1192153
Requeued flit 1192153
5
9
Received nack credit for flit 1189247
Requeued flit 1189247
Received nack credit for flit 1190282
Requeued flit 1190282
6
Received nack credit for flit 1190819
Requeued flit 1190819
2
1
Received nack credit for flit 1200189
Requeued flit 1200189
Received nack credit for flit 1200282
Requeued flit 1200282
2
Received nack credit for flit 1201534
Requeued flit 1201534
3
Received nack credit for flit 1189867
Requeued flit 1189867
6
Received nack credit for flit 1199013
Requeued flit 1199013
2
Received nack credit for flit 1204695
Requeued flit 1204695
1
Received nack credit for flit 1208711
Requeued flit 1208711
1
Received nack credit for flit 1203144
Requeued flit 1203144
4
Received nack credit for flit 1208565
Requeued flit 1208565
2
1
Received nack credit for flit 1212268
Requeued flit 1212268
Received nack credit for flit 1212505
Requeued flit 1212505
2
Received nack credit for flit 1212826
Requeued flit 1212826
1
1
Received nack credit for flit 1211393
Requeued flit 1211393
Received nack credit for flit 1214542
Requeued flit 1214542
1
Received nack credit for flit 1220066
Requeued flit 1220066
3
Received nack credit for flit 1224944
Requeued flit 1224944
3
Received nack credit for flit 1225407
Requeued flit 1225407
8
Received nack credit for flit 1228710
Requeued flit 1228710
4
Received nack credit for flit 1222634
Requeued flit 1222634
9
Received nack credit for flit 1217669
Requeued flit 1217669
1
Received nack credit for flit 1234895
Requeued flit 1234895
2
Received nack credit for flit 1238033
Requeued flit 1238033
1
Received nack credit for flit 1239775
Requeued flit 1239775
8
Received nack credit for flit 1237879
Requeued flit 1237879
2
Received nack credit for flit 1250825
Requeued flit 1250825
7
2
Received nack credit for flit 1248337
Requeued flit 1248337
Received nack credit for flit 1251557
Requeued flit 1251557
1
Received nack credit for flit 1254876
Requeued flit 1254876
3
Received nack credit for flit 1253288
Requeued flit 1253288
5
Received nack credit for flit 1257080
Requeued flit 1257080
2
Received nack credit for flit 1261027
Requeued flit 1261027
1
5
Received nack credit for flit 1261541
Requeued flit 1261541
Received nack credit for flit 1254810
Requeued flit 1254810
1
Received nack credit for flit 1264716
Requeued flit 1264716
1
Received nack credit for flit 1258388
Requeued flit 1258388
1
Received nack credit for flit 1266345
Requeued flit 1266345
5
5
Received nack credit for flit 1264203
Requeued flit 1264203
Received nack credit for flit 1264055
Requeued flit 1264055
1
5
Received nack credit for flit 1268729
Requeued flit 1268729
Received nack credit for flit 1260018
Requeued flit 1260018
5
Received nack credit for flit 1261794
Requeued flit 1261794
3
Received nack credit for flit 1260510
Requeued flit 1260510
3
2
Received nack credit for flit 1265082
Requeued flit 1265082
1
Received nack credit for flit 1271356
Requeued flit 1271356
Received nack credit for flit 1271510
Requeued flit 1271510
1
1
Received nack credit for flit 1272174
Requeued flit 1272174
Received nack credit for flit 1272254
Requeued flit 1272254
1
1
Received nack credit for flit 1272988
Requeued flit 1272988
Received nack credit for flit 1273096
Requeued flit 1273096
1
Received nack credit for flit 1275696
Requeued flit 1275696
10
Received nack credit for flit 1268997
Requeued flit 1268997
Class 0:
Packet latency average = 176.418
	minimum = 5
	maximum = 761
Network latency average = 176.418
	minimum = 5
	maximum = 761
Slowest packet = 1203144
Flit latency average = 178.385
	minimum = 5
	maximum = 761
Slowest flit = 1203144
Fragmentation average = 0
	minimum = 0
	maximum = 0
Injected packet rate average = 0.499716
	minimum = 0.4873 (at node 50)
	maximum = 0.5094 (at node 22)
Accepted packet rate average = 0.499019
	minimum = 0.4852 (at node 18)
	maximum = 0.5127 (at node 38)
Injected flit rate average = 0.499716
	minimum = 0.4873 (at node 50)
	maximum = 0.5094 (at node 22)
Accepted flit rate average= 0.499019
	minimum = 0.4852 (at node 18)
	maximum = 0.5127 (at node 38)
Injected packet length average = 1
Accepted packet length average = 1
Total in-flight flits = 5995 (5995 measured)
latency change    = 0.168295
throughput change = 0.00288065
2
Received nack credit for flit 1280313
Requeued flit 1280313
3
Received nack credit for flit 1281716
Requeued flit 1281716
2
Received nack credit for flit 1277643
Requeued flit 1277643
1
Received nack credit for flit 1285334
Requeued flit 1285334
2
Received nack credit for flit 1275009
Requeued flit 1275009
4
Received nack credit for flit 1279452
Requeued flit 1279452
3
Received nack credit for flit 1288052
Requeued flit 1288052
4
Received nack credit for flit 1284896
Requeued flit 1284896
1
Received nack credit for flit 1293426
Requeued flit 1293426
4
Received nack credit for flit 1287419
Requeued flit 1287419
4
Received nack credit for flit 1276326
Requeued flit 1276326
3
Received nack credit for flit 1292432
Requeued flit 1292432
2
Received nack credit for flit 1294156
Requeued flit 1294156
1
Received nack credit for flit 1300042
Requeued flit 1300042
2
8
Received nack credit for flit 1300595
Requeued flit 1300595
Received nack credit for flit 1298534
Requeued flit 1298534
2
3
Received nack credit for flit 1294169
Requeued flit 1294169
Received nack credit for flit 1295774
Requeued flit 1295774
1
Received nack credit for flit 1303344
Requeued flit 1303344
3
Received nack credit for flit 1303892
Requeued flit 1303892
6
Received nack credit for flit 1299851
Requeued flit 1299851
1
Received nack credit for flit 1299970
Requeued flit 1299970
2
Received nack credit for flit 1294733
Requeued flit 1294733
4
Received nack credit for flit 1303859
Requeued flit 1303859
3
Received nack credit for flit 1302348
Requeued flit 1302348
4
Received nack credit for flit 1303105
Requeued flit 1303105
3
Received nack credit for flit 1308261
Requeued flit 1308261
4
Received nack credit for flit 1302024
Requeued flit 1302024
1
4
Received nack credit for flit 1309405
Requeued flit 1309405
Received nack credit for flit 1304203
Requeued flit 1304203
3
Received nack credit for flit 1317206
Requeued flit 1317206
1
4
Received nack credit for flit 1318023
Requeued flit 1318023
Received nack credit for flit 1315718
Requeued flit 1315718
4
Received nack credit for flit 1313871
Requeued flit 1313871
3
Received nack credit for flit 1317758
Requeued flit 1317758
1
Received nack credit for flit 1321517
Requeued flit 1321517
3
Received nack credit for flit 1321639
Requeued flit 1321639
5
Received nack credit for flit 1321399
Requeued flit 1321399
1
Received nack credit for flit 1328295
Requeued flit 1328295
9
Received nack credit for flit 1323248
Requeued flit 1323248
1
Received nack credit for flit 1330544
Requeued flit 1330544
3
Received nack credit for flit 1331738
Requeued flit 1331738
1
Received nack credit for flit 1336653
Requeued flit 1336653
5
Received nack credit for flit 1333516
Requeued flit 1333516
4
Received nack credit for flit 1334377
Requeued flit 1334377
1
Received nack credit for flit 1339690
Requeued flit 1339690
1
Received nack credit for flit 1336876
Requeued flit 1336876
1
Received nack credit for flit 1354172
Requeued flit 1354172
4
Received nack credit for flit 1350226
Requeued flit 1350226
3
1
Received nack credit for flit 1354852
Requeued flit 1354852
Received nack credit for flit 1355183
Requeued flit 1355183
1
Received nack credit for flit 1356017
Requeued flit 1356017
3
Received nack credit for flit 1348268
Requeued flit 1348268
1
Received nack credit for flit 1352725
Requeued flit 1352725
1
Received nack credit for flit 1358210
Requeued flit 1358210
4
Received nack credit for flit 1358836
Requeued flit 1358836
7
Received nack credit for flit 1346128
Requeued flit 1346128
1
Received nack credit for flit 1362737
Requeued flit 1362737
6
Received nack credit for flit 1358978
Requeued flit 1358978
8
4
Received nack credit for flit 1359535
Requeued flit 1359535
Received nack credit for flit 1354552
Requeued flit 1354552
4
5
Received nack credit for flit 1364017
Requeued flit 1364017
2
Received nack credit for flit 1361573
Requeued flit 1361573
Received nack credit for flit 1364683
Requeued flit 1364683
5
Received nack credit for flit 1364872
Requeued flit 1364872
2
Received nack credit for flit 1368029
Requeued flit 1368029
10
Received nack credit for flit 1361605
Requeued flit 1361605
4
4
Received nack credit for flit 1360118
Requeued flit 1360118
Received nack credit for flit 1362448
Requeued flit 1362448
3
Received nack credit for flit 1374531
Requeued flit 1374531
5
3
Received nack credit for flit 1379288
Requeued flit 1379288
Received nack credit for flit 1377103
Requeued flit 1377103
1
Received nack credit for flit 1388932
Requeued flit 1388932
5
6
Received nack credit for flit 1380279
Requeued flit 1380279
Received nack credit for flit 1380037
Requeued flit 1380037
1
Received nack credit for flit 1394293
Requeued flit 1394293
2
Received nack credit for flit 1395731
Requeued flit 1395731
4
4
Received nack credit for flit 1399044
Requeued flit 1399044
Received nack credit for flit 1396450
Requeued flit 1396450
2
Received nack credit for flit 1401404
Requeued flit 1401404
3
Received nack credit for flit 1410350
Requeued flit 1410350
1
Received nack credit for flit 1411350
Requeued flit 1411350
2
Received nack credit for flit 1411510
Requeued flit 1411510
6
Received nack credit for flit 1404013
Requeued flit 1404013
1
Received nack credit for flit 1421561
Requeued flit 1421561
1
Received nack credit for flit 1422501
Requeued flit 1422501
10
Received nack credit for flit 1404695
Requeued flit 1404695
3
Received nack credit for flit 1430523
Requeued flit 1430523
9
Received nack credit for flit 1424245
Requeued flit 1424245
7
Received nack credit for flit 1423370
Requeued flit 1423370
6
Received nack credit for flit 1430737
Requeued flit 1430737
3
Received nack credit for flit 1434309
Requeued flit 1434309
4
Received nack credit for flit 1428096
Requeued flit 1428096
5
Received nack credit for flit 1437242
Requeued flit 1437242
5
Received nack credit for flit 1437201
Requeued flit 1437201
9
5
Received nack credit for flit 1428317
Requeued flit 1428317
Received nack credit for flit 1438286
Requeued flit 1438286
1
Received nack credit for flit 1446760
Requeued flit 1446760
1
Received nack credit for flit 1448768
Requeued flit 1448768
6
Received nack credit for flit 1444394
Requeued flit 1444394
1
Received nack credit for flit 1455685
Requeued flit 1455685
1
Received nack credit for flit 1460831
Requeued flit 1460831
1
Received nack credit for flit 1466636
Requeued flit 1466636
8
Received nack credit for flit 1465778
Requeued flit 1465778
4
Received nack credit for flit 1461321
Requeued flit 1461321
7
Received nack credit for flit 1465677
Requeued flit 1465677
1
3
Received nack credit for flit 1470649
Requeued flit 1470649
Received nack credit for flit 1470851
Requeued flit 1470851
1
Received nack credit for flit 1472327
Requeued flit 1472327
4
Received nack credit for flit 1463291
Requeued flit 1463291
4
Received nack credit for flit 1470279
Requeued flit 1470279
1
Received nack credit for flit 1475862
Requeued flit 1475862
3
Received nack credit for flit 1475750
Requeued flit 1475750
3
Received nack credit for flit 1478485
Requeued flit 1478485
3
Received nack credit for flit 1480086
Requeued flit 1480086
9
Received nack credit for flit 1478644
Requeued flit 1478644
1
Received nack credit for flit 1485506
Requeued flit 1485506
4
Received nack credit for flit 1474876
Requeued flit 1474876
3
Received nack credit for flit 1489115
Requeued flit 1489115
2
Received nack credit for flit 1491420
Requeued flit 1491420
1
Received nack credit for flit 1491061
Requeued flit 1491061
1
Received nack credit for flit 1495103
Requeued flit 1495103
1
3
Received nack credit for flit 1495798
Requeued flit 1495798
Received nack credit for flit 1495635
Requeued flit 1495635
3
Received nack credit for flit 1494697
Requeued flit 1494697
9
Received nack credit for flit 1494014
Requeued flit 1494014
1
Received nack credit for flit 1495064
Requeued flit 1495064
1
Received nack credit for flit 1499847
Requeued flit 1499847
1
Received nack credit for flit 1500896
Requeued flit 1500896
2
2
Received nack credit for flit 1500990
Requeued flit 1500990
Received nack credit for flit 1501005
Requeued flit 1501005
5
Received nack credit for flit 1493960
Requeued flit 1493960
1
Received nack credit for flit 1502700
Requeued flit 1502700
4
Received nack credit for flit 1494532
Requeued flit 1494532
1
Received nack credit for flit 1504909
Requeued flit 1504909
2
4
Received nack credit for flit 1505973
Requeued flit 1505973
Received nack credit for flit 1506464
Requeued flit 1506464
1
Received nack credit for flit 1508913
Requeued flit 1508913
3
Received nack credit for flit 1509043
Requeued flit 1509043
3
Received nack credit for flit 1512114
Requeued flit 1512114
3
Received nack credit for flit 1512971
Requeued flit 1512971
5
Received nack credit for flit 1514792
Requeued flit 1514792
5
Received nack credit for flit 1508372
Requeued flit 1508372
1
Received nack credit for flit 1518101
Requeued flit 1518101
7
Received nack credit for flit 1513168
Requeued flit 1513168
4
Received nack credit for flit 1517597
Requeued flit 1517597
8
1
Received nack credit for flit 1513900
Requeued flit 1513900
Received nack credit for flit 1521785
Requeued flit 1521785
6
Received nack credit for flit 1513226
Requeued flit 1513226
1
Received nack credit for flit 1523639
Requeued flit 1523639
2
Received nack credit for flit 1523790
Requeued flit 1523790
1
Received nack credit for flit 1530275
Requeued flit 1530275
3
Received nack credit for flit 1531872
Requeued flit 1531872
2
Received nack credit for flit 1529451
Requeued flit 1529451
3
Received nack credit for flit 1530997
Requeued flit 1530997
1
Received nack credit for flit 1535589
Requeued flit 1535589
4
Received nack credit for flit 1542577
Requeued flit 1542577
1
Received nack credit for flit 1543910
Requeued flit 1543910
10
Received nack credit for flit 1533039
Requeued flit 1533039
3
Received nack credit for flit 1544615
Requeued flit 1544615
1
Received nack credit for flit 1546006
Requeued flit 1546006
1
Received nack credit for flit 1541178
Requeued flit 1541178
3
Received nack credit for flit 1545127
Requeued flit 1545127
8
Received nack credit for flit 1549153
Requeued flit 1549153
6
Received nack credit for flit 1545505
Requeued flit 1545505
1
Received nack credit for flit 1557114
Requeued flit 1557114
12
Received nack credit for flit 1553318
Requeued flit 1553318
5
2
Received nack credit for flit 1557690
Requeued flit 1557690
Received nack credit for flit 1561406
Requeued flit 1561406
1
Received nack credit for flit 1561706
Requeued flit 1561706
2
Received nack credit for flit 1558681
Requeued flit 1558681
7
Received nack credit for flit 1562034
Requeued flit 1562034
2
Received nack credit for flit 1565545
Requeued flit 1565545
2
Received nack credit for flit 1562589
Requeued flit 1562589
4
Received nack credit for flit 1566388
Requeued flit 1566388
7
Received nack credit for flit 1565296
Requeued flit 1565296
1
Received nack credit for flit 1570430
Requeued flit 1570430
1
Received nack credit for flit 1573208
Requeued flit 1573208
7
6
Received nack credit for flit 1572994
Requeued flit 1572994
Received nack credit for flit 1572271
Requeued flit 1572271
7
Received nack credit for flit 1564809
Requeued flit 1564809
1
Received nack credit for flit 1576482
Requeued flit 1576482
4
Received nack credit for flit 1577333
Requeued flit 1577333
4
4
Received nack credit for flit 1570114
Requeued flit 1570114
Received nack credit for flit 1581391
Requeued flit 1581391
1
Received nack credit for flit 1582933
Requeued flit 1582933
1
Received nack credit for flit 1574391
Requeued flit 1574391
7
Received nack credit for flit 1577058
Requeued flit 1577058
2
Received nack credit for flit 1581208
Requeued flit 1581208
2
Received nack credit for flit 1587948
Requeued flit 1587948
4
Received nack credit for flit 1588487
Requeued flit 1588487
3
Received nack credit for flit 1591744
Requeued flit 1591744
1
3
Received nack credit for flit 1593944
Requeued flit 1593944
Received nack credit for flit 1593776
Requeued flit 1593776
1
Received nack credit for flit 1592196
Requeued flit 1592196
6
Received nack credit for flit 1594403
Requeued flit 1594403
5
Received nack credit for flit 1590246
Requeued flit 1590246
9
Received nack credit for flit 1590152
Requeued flit 1590152
Class 0:
Packet latency average = 183.269
	minimum = 5
	maximum = 859
Network latency average = 183.269
	minimum = 5
	maximum = 859
Slowest packet = 1304203
Flit latency average = 184.193
	minimum = 5
	maximum = 859
Slowest flit = 1304203
Fragmentation average = 0
	minimum = 0
	maximum = 0
Injected packet rate average = 0.500032
	minimum = 0.4934 (at node 12)
	maximum = 0.51015 (at node 40)
Accepted packet rate average = 0.499359
	minimum = 0.48875 (at node 14)
	maximum = 0.50965 (at node 1)
Injected flit rate average = 0.500032
	minimum = 0.4934 (at node 12)
	maximum = 0.51015 (at node 40)
Accepted flit rate average= 0.499359
	minimum = 0.48875 (at node 14)
	maximum = 0.50965 (at node 1)
Injected packet length average = 1
Accepted packet length average = 1
Total in-flight flits = 6410 (6410 measured)
latency change    = 0.0373855
throughput change = 0.000682124
1
Received nack credit for flit 1594108
Requeued flit 1594108
5
Received nack credit for flit 1580809
Requeued flit 1580809
1
7
Received nack credit for flit 1601106
Requeued flit 1601106
1
Received nack credit for flit 1602294
Requeued flit 1602294
Received nack credit for flit 1598654
Requeued flit 1598654
7
Received nack credit for flit 1595293
Requeued flit 1595293
1
Received nack credit for flit 1606697
Requeued flit 1606697
2
Received nack credit for flit 1607958
Requeued flit 1607958
7
5
Received nack credit for flit 1603686
Requeued flit 1603686
Received nack credit for flit 1592799
Requeued flit 1592799
4
Received nack credit for flit 1605945
Requeued flit 1605945
1
Received nack credit for flit 1612594
Requeued flit 1612594
5
1
Received nack credit for flit 1609570
Requeued flit 1609570
Received nack credit for flit 1614232
Requeued flit 1614232
5
Received nack credit for flit 1612707
Requeued flit 1612707
5
Received nack credit for flit 1613452
Requeued flit 1613452
5
Received nack credit for flit 1617540
Requeued flit 1617540
8
Received nack credit for flit 1621197
Requeued flit 1621197
1
Received nack credit for flit 1623312
Requeued flit 1623312
1
Received nack credit for flit 1625029
Requeued flit 1625029
4
Received nack credit for flit 1618910
Requeued flit 1618910
5
Received nack credit for flit 1623979
Requeued flit 1623979
5
Received nack credit for flit 1622882
Requeued flit 1622882
1
Received nack credit for flit 1630714
Requeued flit 1630714
2
Received nack credit for flit 1631238
Requeued flit 1631238
1
Received nack credit for flit 1636942
Requeued flit 1636942
5
Received nack credit for flit 1631794
Requeued flit 1631794
3
Received nack credit for flit 1636016
Requeued flit 1636016
6
Received nack credit for flit 1633970
Requeued flit 1633970
2
Received nack credit for flit 1641243
Requeued flit 1641243
1
Received nack credit for flit 1641875
Requeued flit 1641875
1
Received nack credit for flit 1643681
Requeued flit 1643681
1
Received nack credit for flit 1644077
Requeued flit 1644077
4
Received nack credit for flit 1644950
Requeued flit 1644950
1
3
Received nack credit for flit 1645753
Requeued flit 1645753
Received nack credit for flit 1640800
Requeued flit 1640800
3
2
1
Received nack credit for flit 1646273
Requeued flit 1646273
Received nack credit for flit 1646429
Requeued flit 1646429
Received nack credit for flit 1646234
Requeued flit 1646234
3
Received nack credit for flit 1646894
Requeued flit 1646894
8
Received nack credit for flit 1640176
Requeued flit 1640176
4
Received nack credit for flit 1653869
Requeued flit 1653869
6
Received nack credit for flit 1658571
Requeued flit 1658571
2
Received nack credit for flit 1661787
Requeued flit 1661787
2
Received nack credit for flit 1666247
Requeued flit 1666247
1
Received nack credit for flit 1668648
Requeued flit 1668648
4
Received nack credit for flit 1668093
Requeued flit 1668093
2
Received nack credit for flit 1669801
Requeued flit 1669801
5
Received nack credit for flit 1659151
Requeued flit 1659151
3
Received nack credit for flit 1668419
Requeued flit 1668419
4
Received nack credit for flit 1675219
Requeued flit 1675219
3
9
Received nack credit for flit 1675890
Requeued flit 1675890
Received nack credit for flit 1668780
Requeued flit 1668780
1
Received nack credit for flit 1677133
Requeued flit 1677133
2
6
Received nack credit for flit 1678169
Requeued flit 1678169
Received nack credit for flit 1676708
Requeued flit 1676708
2
Received nack credit for flit 1680042
Requeued flit 1680042
2
2
Received nack credit for flit 1674613
Requeued flit 1674613
Received nack credit for flit 1671668
Requeued flit 1671668
1
Received nack credit for flit 1684589
Requeued flit 1684589
5
Received nack credit for flit 1679593
Requeued flit 1679593
8
Received nack credit for flit 1683748
Requeued flit 1683748
2
Received nack credit for flit 1683152
Requeued flit 1683152
5
1
Received nack credit for flit 1681675
Requeued flit 1681675
Received nack credit for flit 1691791
Requeued flit 1691791
8
Received nack credit for flit 1688710
Requeued flit 1688710
2
Received nack credit for flit 1695358
Requeued flit 1695358
2
Received nack credit for flit 1692679
Requeued flit 1692679
4
Received nack credit for flit 1686854
Requeued flit 1686854
1
Received nack credit for flit 1698035
Requeued flit 1698035
2
Received nack credit for flit 1700647
Requeued flit 1700647
5
Received nack credit for flit 1691374
Requeued flit 1691374
4
Received nack credit for flit 1702961
Requeued flit 1702961
5
Received nack credit for flit 1704543
Requeued flit 1704543
13
Received nack credit for flit 1704528
Requeued flit 1704528
1
Received nack credit for flit 1715578
Requeued flit 1715578
5
Received nack credit for flit 1704374
Requeued flit 1704374
1
Received nack credit for flit 1722653
Requeued flit 1722653
2
Received nack credit for flit 1722952
Requeued flit 1722952
3
Received nack credit for flit 1723302
Requeued flit 1723302
6
Received nack credit for flit 1715699
Requeued flit 1715699
5
Received nack credit for flit 1729967
Requeued flit 1729967
1
Received nack credit for flit 1732907
Requeued flit 1732907
1
Received nack credit for flit 1733326
Requeued flit 1733326
10
Received nack credit for flit 1732125
Requeued flit 1732125
3
Received nack credit for flit 1736371
Requeued flit 1736371
12
Received nack credit for flit 1741282
Requeued flit 1741282
7
Received nack credit for flit 1729895
Requeued flit 1729895
1
Received nack credit for flit 1748269
Requeued flit 1748269
1
Received nack credit for flit 1741189
Requeued flit 1741189
4
Received nack credit for flit 1747869
Requeued flit 1747869
3
Received nack credit for flit 1750218
Requeued flit 1750218
2
Received nack credit for flit 1755447
Requeued flit 1755447
1
Received nack credit for flit 1756911
Requeued flit 1756911
1
Received nack credit for flit 1757168
Requeued flit 1757168
6
Received nack credit for flit 1748696
Requeued flit 1748696
6
Received nack credit for flit 1754104
Requeued flit 1754104
8
Received nack credit for flit 1753557
Requeued flit 1753557
2
Received nack credit for flit 1760082
Requeued flit 1760082
5
Received nack credit for flit 1751466
Requeued flit 1751466
5
Received nack credit for flit 1761475
Requeued flit 1761475
3
Received nack credit for flit 1763387
Requeued flit 1763387
5
Received nack credit for flit 1757432
Requeued flit 1757432
1
Received nack credit for flit 1768093
Requeued flit 1768093
1
Received nack credit for flit 1768510
Requeued flit 1768510
1
Received nack credit for flit 1770163
Requeued flit 1770163
4
Received nack credit for flit 1766375
Requeued flit 1766375
4
Received nack credit for flit 1762610
Requeued flit 1762610
1
Received nack credit for flit 1768905
Requeued flit 1768905
7
Received nack credit for flit 1759135
Requeued flit 1759135
2
Received nack credit for flit 1776510
Requeued flit 1776510
3
Received nack credit for flit 1779038
Requeued flit 1779038
3
Received nack credit for flit 1779704
Requeued flit 1779704
5
Received nack credit for flit 1781193
Requeued flit 1781193
5
Received nack credit for flit 1781782
Requeued flit 1781782
1
Received nack credit for flit 1784981
Requeued flit 1784981
7
Received nack credit for flit 1778469
Requeued flit 1778469
1
Received nack credit for flit 1787426
Requeued flit 1787426
6
Received nack credit for flit 1769697
Requeued flit 1769697
4
Received nack credit for flit 1778592
Requeued flit 1778592
1
Received nack credit for flit 1791783
Requeued flit 1791783
1
Received nack credit for flit 1792222
Requeued flit 1792222
3
Received nack credit for flit 1784615
Requeued flit 1784615
1
Received nack credit for flit 1793924
Requeued flit 1793924
3
Received nack credit for flit 1784510
Requeued flit 1784510
3
Received nack credit for flit 1794687
Requeued flit 1794687
2
Received nack credit for flit 1798247
Requeued flit 1798247
4
Received nack credit for flit 1797404
Requeued flit 1797404
2
Received nack credit for flit 1800600
Requeued flit 1800600
4
Received nack credit for flit 1794897
Requeued flit 1794897
7
Received nack credit for flit 1791730
Requeued flit 1791730
2
Received nack credit for flit 1806896
Requeued flit 1806896
1
Received nack credit for flit 1805067
Requeued flit 1805067
1
Received nack credit for flit 1809859
Requeued flit 1809859
6
Received nack credit for flit 1802670
Requeued flit 1802670
1
Received nack credit for flit 1814930
Requeued flit 1814930
1
Received nack credit for flit 1819861
Requeued flit 1819861
2
Received nack credit for flit 1820314
Requeued flit 1820314
5
Received nack credit for flit 1819542
Requeued flit 1819542
1
Received nack credit for flit 1827443
Requeued flit 1827443
8
1
Received nack credit for flit 1819359
Requeued flit 1819359
Received nack credit for flit 1828601
Requeued flit 1828601
1
Received nack credit for flit 1834732
Requeued flit 1834732
4
Received nack credit for flit 1829981
Requeued flit 1829981
2
Received nack credit for flit 1837477
Requeued flit 1837477
1
Received nack credit for flit 1839435
Requeued flit 1839435
5
Received nack credit for flit 1833017
Requeued flit 1833017
8
Received nack credit for flit 1829713
Requeued flit 1829713
1
Received nack credit for flit 1843439
Requeued flit 1843439
4
1
Received nack credit for flit 1845534
Requeued flit 1845534
Received nack credit for flit 1851013
Requeued flit 1851013
8
Received nack credit for flit 1847729
Requeued flit 1847729
3
Received nack credit for flit 1853441
Requeued flit 1853441
8
2
Received nack credit for flit 1854139
Requeued flit 1854139
Received nack credit for flit 1855699
Requeued flit 1855699
2
Received nack credit for flit 1857584
Requeued flit 1857584
1
Received nack credit for flit 1859623
Requeued flit 1859623
3
Received nack credit for flit 1862989
Requeued flit 1862989
1
Received nack credit for flit 1864460
Requeued flit 1864460
4
Received nack credit for flit 1859196
Requeued flit 1859196
4
Received nack credit for flit 1863238
Requeued flit 1863238
5
Received nack credit for flit 1861646
Requeued flit 1861646
3
Received nack credit for flit 1865573
Requeued flit 1865573
2
Received nack credit for flit 1869258
Requeued flit 1869258
3
Received nack credit for flit 1868689
Requeued flit 1868689
2
Received nack credit for flit 1875112
Requeued flit 1875112
2
Received nack credit for flit 1877296
Requeued flit 1877296
2
Received nack credit for flit 1877991
Requeued flit 1877991
3
Received nack credit for flit 1878262
Requeued flit 1878262
1
Received nack credit for flit 1881694
Requeued flit 1881694
1
Received nack credit for flit 1883557
Requeued flit 1883557
1
1
Received nack credit for flit 1884236
Requeued flit 1884236
Received nack credit for flit 1878594
Requeued flit 1878594
2
Received nack credit for flit 1884819
Requeued flit 1884819
1
Received nack credit for flit 1888202
Requeued flit 1888202
4
Received nack credit for flit 1886380
Requeued flit 1886380
1
Received nack credit for flit 1892379
Requeued flit 1892379
2
Received nack credit for flit 1883272
Requeued flit 1883272
3
Received nack credit for flit 1894860
Requeued flit 1894860
1
Received nack credit for flit 1897671
Requeued flit 1897671
6
Received nack credit for flit 1890396
Requeued flit 1890396
6
Received nack credit for flit 1900767
Requeued flit 1900767
1
Received nack credit for flit 1906648
Requeued flit 1906648
1
Received nack credit for flit 1909455
Requeued flit 1909455
1
Received nack credit for flit 1910431
Requeued flit 1910431
3
Received nack credit for flit 1908679
Requeued flit 1908679
3
Received nack credit for flit 1912366
Requeued flit 1912366
8
Received nack credit for flit 1909767
Requeued flit 1909767
1
Received nack credit for flit 1909104
Requeued flit 1909104
4
Received nack credit for flit 1907607
Requeued flit 1907607
1
Received nack credit for flit 1916243
Requeued flit 1916243
Class 0:
Packet latency average = 187.55
	minimum = 5
	maximum = 1025
Network latency average = 187.55
	minimum = 5
	maximum = 1025
Slowest packet = 1580809
Flit latency average = 188.141
	minimum = 5
	maximum = 1025
Slowest flit = 1580809
Fragmentation average = 0
	minimum = 0
	maximum = 0
Injected packet rate average = 0.49972
	minimum = 0.495 (at node 25)
	maximum = 0.507267 (at node 22)
Accepted packet rate average = 0.499258
	minimum = 0.487733 (at node 40)
	maximum = 0.506233 (at node 31)
Injected flit rate average = 0.49972
	minimum = 0.495 (at node 25)
	maximum = 0.507267 (at node 22)
Accepted flit rate average= 0.499258
	minimum = 0.487733 (at node 40)
	maximum = 0.506233 (at node 31)
Injected packet length average = 1
Accepted packet length average = 1
Total in-flight flits = 6437 (6437 measured)
latency change    = 0.0228256
throughput change = 0.000203427
3
Received nack credit for flit 1915494
Requeued flit 1915494
4
Received nack credit for flit 1917946
Requeued flit 1917946
6
Received nack credit for flit 1915960
Requeued flit 1915960
3
Received nack credit for flit 1912835
Requeued flit 1912835
1
Received nack credit for flit 1919564
Requeued flit 1919564
9
Received nack credit for flit 1922729
Requeued flit 1922729
1
Received nack credit for flit 1924550
Requeued flit 1924550
1
Received nack credit for flit 1933168
Requeued flit 1933168
6
Received nack credit for flit 1927996
Requeued flit 1927996
3
Received nack credit for flit 1940252
Requeued flit 1940252
4
Received nack credit for flit 1935609
Requeued flit 1935609
2
Received nack credit for flit 1947446
Requeued flit 1947446
1
Received nack credit for flit 1949025
Requeued flit 1949025
1
Received nack credit for flit 1949217
Requeued flit 1949217
1
Received nack credit for flit 1946614
Requeued flit 1946614
6
Received nack credit for flit 1954949
Requeued flit 1954949
2
Received nack credit for flit 1958885
Requeued flit 1958885
1
Received nack credit for flit 1960610
Requeued flit 1960610
7
3
Received nack credit for flit 1949924
Requeued flit 1949924
Received nack credit for flit 1961163
Requeued flit 1961163
7
Received nack credit for flit 1944989
Requeued flit 1944989
2
Received nack credit for flit 1965059
Requeued flit 1965059
3
Received nack credit for flit 1965896
Requeued flit 1965896
5
Received nack credit for flit 1962941
Requeued flit 1962941
3
Received nack credit for flit 1969553
Requeued flit 1969553
3
Received nack credit for flit 1969975
Requeued flit 1969975
5
Received nack credit for flit 1973162
Requeued flit 1973162
6
4
Received nack credit for flit 1966144
Requeued flit 1966144
3
Received nack credit for flit 1971918
Requeued flit 1971918
Received nack credit for flit 1976485
Requeued flit 1976485
3
Received nack credit for flit 1977268
Requeued flit 1977268
4
Received nack credit for flit 1968755
Requeued flit 1968755
3
Received nack credit for flit 1978369
Requeued flit 1978369
2
Received nack credit for flit 1979534
Requeued flit 1979534
1
Received nack credit for flit 1969487
Requeued flit 1969487
1
Received nack credit for flit 1982380
Requeued flit 1982380
3
Received nack credit for flit 1980635
Requeued flit 1980635
1
Received nack credit for flit 1984009
Requeued flit 1984009
1
Received nack credit for flit 1986844
Requeued flit 1986844
6
Received nack credit for flit 1983634
Requeued flit 1983634
1
1
Received nack credit for flit 1990130
Requeued flit 1990130
Received nack credit for flit 1988998
Requeued flit 1988998
7
Received nack credit for flit 1985226
Requeued flit 1985226
2
Received nack credit for flit 1994501
Requeued flit 1994501
6
Received nack credit for flit 1974177
Requeued flit 1974177
4
Received nack credit for flit 2002881
Requeued flit 2002881
1
Received nack credit for flit 2005955
Requeued flit 2005955
3
Received nack credit for flit 1994343
Requeued flit 1994343
5
Received nack credit for flit 2002654
Requeued flit 2002654
7
Received nack credit for flit 2001102
Requeued flit 2001102
1
Received nack credit for flit 2005243
Requeued flit 2005243
6
Received nack credit for flit 2000150
Requeued flit 2000150
1
Received nack credit for flit 2011678
Requeued flit 2011678
3
Received nack credit for flit 2011675
Requeued flit 2011675
5
4
Received nack credit for flit 2015092
Requeued flit 2015092
Received nack credit for flit 2015174
Requeued flit 2015174
2
Received nack credit for flit 2017745
Requeued flit 2017745
1
Received nack credit for flit 2007442
Requeued flit 2007442
2
Received nack credit for flit 2014063
Requeued flit 2014063
7
Received nack credit for flit 2016388
Requeued flit 2016388
7
Received nack credit for flit 2006340
Requeued flit 2006340
7
Received nack credit for flit 2025447
Requeued flit 2025447
4
Received nack credit for flit 2017847
Requeued flit 2017847
4
Received nack credit for flit 2026228
Requeued flit 2026228
1
Received nack credit for flit 2035659
Requeued flit 2035659
7
Received nack credit for flit 2021059
Requeued flit 2021059
2
8
Received nack credit for flit 2032679
Requeued flit 2032679
Received nack credit for flit 2033614
Requeued flit 2033614
1
Received nack credit for flit 2036393
Requeued flit 2036393
1
Received nack credit for flit 2046231
Requeued flit 2046231
3
Received nack credit for flit 2040755
Requeued flit 2040755
1
Received nack credit for flit 2049679
Requeued flit 2049679
4
Received nack credit for flit 2047356
Requeued flit 2047356
1
Received nack credit for flit 2054042
Requeued flit 2054042
1
Received nack credit for flit 2054498
Requeued flit 2054498
2
Received nack credit for flit 2055037
Requeued flit 2055037
7
Received nack credit for flit 2052188
Requeued flit 2052188
6
Received nack credit for flit 2047859
Requeued flit 2047859
2
Received nack credit for flit 2058294
Requeued flit 2058294
1
Received nack credit for flit 2058921
Requeued flit 2058921
3
7
Received nack credit for flit 2059310
Requeued flit 2059310
Received nack credit for flit 2042652
Requeued flit 2042652
5
Received nack credit for flit 2055104
Requeued flit 2055104
3
Received nack credit for flit 2057698
Requeued flit 2057698
1
Received nack credit for flit 2074084
Requeued flit 2074084
1
Received nack credit for flit 2062349
Requeued flit 2062349
3
Received nack credit for flit 2059561
Requeued flit 2059561
1
Received nack credit for flit 2076987
Requeued flit 2076987
2
Received nack credit for flit 2079885
Requeued flit 2079885
1
Received nack credit for flit 2081562
Requeued flit 2081562
10
Received nack credit for flit 2075546
Requeued flit 2075546
5
Received nack credit for flit 2084291
Requeued flit 2084291
3
Received nack credit for flit 2087422
Requeued flit 2087422
2
Received nack credit for flit 2090383
Requeued flit 2090383
4
Received nack credit for flit 2084206
Requeued flit 2084206
5
Received nack credit for flit 2091228
Requeued flit 2091228
2
Received nack credit for flit 2090213
Requeued flit 2090213
1
Received nack credit for flit 2102843
Requeued flit 2102843
5
Received nack credit for flit 2094219
Requeued flit 2094219
3
Received nack credit for flit 2096862
Requeued flit 2096862
7
Received nack credit for flit 2087944
Requeued flit 2087944
5
Received nack credit for flit 2109625
Requeued flit 2109625
2
Received nack credit for flit 2110712
Requeued flit 2110712
2
Received nack credit for flit 2111613
Requeued flit 2111613
2
Received nack credit for flit 2112172
Requeued flit 2112172
9
Received nack credit for flit 2108594
Requeued flit 2108594
2
Received nack credit for flit 2114507
Requeued flit 2114507
5
Received nack credit for flit 2113074
Requeued flit 2113074
8
8
Received nack credit for flit 2116113
Requeued flit 2116113
Received nack credit for flit 2103011
Requeued flit 2103011
1
Received nack credit for flit 2113225
Requeued flit 2113225
6
Received nack credit for flit 2111627
Requeued flit 2111627
3
Received nack credit for flit 2112281
Requeued flit 2112281
4
Received nack credit for flit 2121666
Requeued flit 2121666
3
Received nack credit for flit 2124994
Requeued flit 2124994
12
Received nack credit for flit 2125948
Requeued flit 2125948
4
Received nack credit for flit 2129662
Requeued flit 2129662
1
Received nack credit for flit 2137286
Requeued flit 2137286
2
1
Received nack credit for flit 2137937
Requeued flit 2137937
Received nack credit for flit 2138136
Requeued flit 2138136
6
Received nack credit for flit 2135115
Requeued flit 2135115
4
1
Received nack credit for flit 2135072
Requeued flit 2135072
Received nack credit for flit 2128886
Requeued flit 2128886
1
8
Received nack credit for flit 2141172
Requeued flit 2141172
Received nack credit for flit 2137259
Requeued flit 2137259
1
Received nack credit for flit 2142388
Requeued flit 2142388
7
Received nack credit for flit 2121458
Requeued flit 2121458
1
Received nack credit for flit 2139096
Requeued flit 2139096
5
1
1
Received nack credit for flit 2140547
Requeued flit 2140547
Received nack credit for flit 2144850
Requeued flit 2144850
Received nack credit for flit 2144851
Requeued flit 2144851
10
Received nack credit for flit 2131102
Requeued flit 2131102
4
Received nack credit for flit 2142952
Requeued flit 2142952
1
Received nack credit for flit 2152068
Requeued flit 2152068
4
Received nack credit for flit 2145870
Requeued flit 2145870
1
Received nack credit for flit 2156336
Requeued flit 2156336
1
Received nack credit for flit 2158388
Requeued flit 2158388
1
Received nack credit for flit 2162163
Requeued flit 2162163
2
Received nack credit for flit 2162257
Requeued flit 2162257
7
Received nack credit for flit 2156826
Requeued flit 2156826
1
Received nack credit for flit 2174673
Requeued flit 2174673
4
Received nack credit for flit 2167754
Requeued flit 2167754
1
Received nack credit for flit 2178970
Requeued flit 2178970
1
Received nack credit for flit 2179653
Requeued flit 2179653
4
Received nack credit for flit 2171558
Requeued flit 2171558
1
Received nack credit for flit 2179676
Requeued flit 2179676
1
Received nack credit for flit 2186738
Requeued flit 2186738
1
Received nack credit for flit 2187794
Requeued flit 2187794
1
Received nack credit for flit 2183487
Requeued flit 2183487
1
Received nack credit for flit 2189474
Requeued flit 2189474
4
Received nack credit for flit 2184710
Requeued flit 2184710
1
Received nack credit for flit 2190509
Requeued flit 2190509
6
Received nack credit for flit 2188654
Requeued flit 2188654
4
Received nack credit for flit 2197875
Requeued flit 2197875
1
Received nack credit for flit 2198729
Requeued flit 2198729
1
6
Received nack credit for flit 2199097
Requeued flit 2199097
Received nack credit for flit 2193679
Requeued flit 2193679
2
Received nack credit for flit 2195079
Requeued flit 2195079
2
Received nack credit for flit 2202441
Requeued flit 2202441
2
2
Received nack credit for flit 2206589
Requeued flit 2206589
Received nack credit for flit 2206609
Requeued flit 2206609
4
Received nack credit for flit 2206616
Requeued flit 2206616
4
Received nack credit for flit 2204252
Requeued flit 2204252
3
Received nack credit for flit 2209415
Requeued flit 2209415
1
Received nack credit for flit 2211621
Requeued flit 2211621
7
Received nack credit for flit 2210439
Requeued flit 2210439
7
Received nack credit for flit 2207211
Requeued flit 2207211
1
Received nack credit for flit 2219456
Requeued flit 2219456
3
Received nack credit for flit 2221952
Requeued flit 2221952
4
Received nack credit for flit 2222017
Requeued flit 2222017
1
Received nack credit for flit 2225784
Requeued flit 2225784
4
Received nack credit for flit 2232923
Requeued flit 2232923
12
Received nack credit for flit 2224914
Requeued flit 2224914
4
Received nack credit for flit 2237585
Requeued flit 2237585
Class 0:
Packet latency average = 193.437
	minimum = 5
	maximum = 1163
Network latency average = 193.437
	minimum = 5
	maximum = 1163
Slowest packet = 1974177
Flit latency average = 193.854
	minimum = 5
	maximum = 1163
Slowest flit = 1974177
Fragmentation average = 0
	minimum = 0
	maximum = 0
Injected packet rate average = 0.499623
	minimum = 0.494725 (at node 25)
	maximum = 0.5069 (at node 22)
Accepted packet rate average = 0.499126
	minimum = 0.4907 (at node 40)
	maximum = 0.505975 (at node 1)
Injected flit rate average = 0.499623
	minimum = 0.494725 (at node 25)
	maximum = 0.5069 (at node 22)
Accepted flit rate average= 0.499126
	minimum = 0.4907 (at node 40)
	maximum = 0.505975 (at node 1)
Injected packet length average = 1
Accepted packet length average = 1
Total in-flight flits = 6823 (6823 measured)
latency change    = 0.0304306
throughput change = 0.000264525
Draining all recorded packets ...
1
Received nack credit for flit 2238466
Requeued flit 2238466
1
Received nack credit for flit 2239986
Requeued flit 2239986
1
Received nack credit for flit 2240879
Requeued flit 2240879
6
Received nack credit for flit 2231875
Requeued flit 2231875
7
Received nack credit for flit 2243033
Requeued flit 2243033
1
Received nack credit for flit 2249068
Requeued flit 2249068
2
Received nack credit for flit 2245870
Requeued flit 2245870
1
Received nack credit for flit 2252125
Requeued flit 2252125
4
Received nack credit for flit 2257044
Requeued flit 2257044
1
Received nack credit for flit 2262059
Requeued flit 2262059
1
Received nack credit for flit 2262893
Requeued flit 2262893
1
Draining remaining packets ...
Received nack credit for flit 2263216
Requeued flit 2263216
5
Received nack credit for flit 2260876
Requeued flit 2260876
Time taken is 71416 cycles
====== Overall Traffic Statistics ======
====== Traffic class 0 ======
Packet latency average = 194.551 (1 samples)
	minimum = 5 (1 samples)
	maximum = 1163 (1 samples)
Network latency average = 194.551 (1 samples)
	minimum = 5 (1 samples)
	maximum = 1163 (1 samples)
Flit latency average = 195.248 (1 samples)
	minimum = 5 (1 samples)
	maximum = 1163 (1 samples)
Fragmentation average = 0 (1 samples)
	minimum = 0 (1 samples)
	maximum = 0 (1 samples)
Injected packet rate average = 0.499623 (1 samples)
	minimum = 0.494725 (1 samples)
	maximum = 0.5069 (1 samples)
Accepted packet rate average = 0.499126 (1 samples)
	minimum = 0.4907 (1 samples)
	maximum = 0.505975 (1 samples)
Injected flit rate average = 0.499623 (1 samples)
	minimum = 0.494725 (1 samples)
	maximum = 0.5069 (1 samples)
Accepted flit rate average = 0.499126 (1 samples)
	minimum = 0.4907 (1 samples)
	maximum = 0.505975 (1 samples)
Injected packet size average = 1 (1 samples)
Accepted packet size average = 1 (1 samples)
Hops average = 6.24942 (1 samples)
Total run time 151.869
