BEGIN Configuration File: examples/ecc_mesh88_config_1_1.000_link_3
// $Id$

// Copyright (c) 2007-2015, Trustees of The Leland Stanford Junior University
// All rights reserved.
//
// Redistribution and use in source and binary forms, with or without
// modification, are permitted provided that the following conditions are met:
//
// Redistributions of source code must retain the above copyright notice, this
// list of conditions and the following disclaimer.
// Redistributions in binary form must reproduce the above copyright notice,
// this list of conditions and the following disclaimer in the documentation
// and/or other materials provided with the distribution.
//
// THIS SOFTWARE IS PROVIDED BY THE COPYRIGHT HOLDERS AND CONTRIBUTORS "AS IS"
// AND ANY EXPRESS OR IMPLIED WARRANTIES, INCLUDING, BUT NOT LIMITED TO, THE
// IMPLIED WARRANTIES OF MERCHANTABILITY AND FITNESS FOR A PARTICULAR PURPOSE
// ARE DISCLAIMED. IN NO EVENT SHALL THE COPYRIGHT OWNER OR CONTRIBUTORS BE
// LIABLE FOR ANY DIRECT, INDIRECT, INCIDENTAL, SPECIAL, EXEMPLARY, OR
// CONSEQUENTIAL DAMAGES (INCLUDING, BUT NOT LIMITED TO, PROCUREMENT OF
// SUBSTITUTE GOODS OR SERVICES; LOSS OF USE, DATA, OR PROFITS; OR BUSINESS
// INTERRUPTION) HOWEVER CAUSED AND ON ANY THEORY OF LIABILITY, WHETHER IN
// CONTRACT, STRICT LIABILITY, OR TORT (INCLUDING NEGLIGENCE OR OTHERWISE)
// ARISING IN ANY WAY OUT OF THE USE OF THIS SOFTWARE, EVEN IF ADVISED OF THE
// POSSIBILITY OF SUCH DAMAGE.

// Dragonfly
//




vc_buf_size = 256;


wait_for_tail_credit = 0;

//
// Router architecture
//
vc_allocator = separable_input_first; 
sw_allocator = separable_input_first;
alloc_iters  = 1;

credit_delay   = 2;
routing_delay  = 0;
vc_alloc_delay = 1;
sw_alloc_delay = 1;
st_final_delay = 1;

input_speedup     = 1;
output_speedup    = 1;
internal_speedup  = 2.0;


warmup_periods = 3;
sim_count          = 1;

sample_period  = 10000;  


routing_function = dor;
num_vcs     = 2;

priority = none;
traffic       = uniform; 

injection_rate = 1.0;
packet_size = 1;
injection_rate_uses_flits = 1;

topology = mesh;

k  = 8;
n  = 2;

fer = 3;
ecc = link;

watch_out=-;
//watch_file = watch.txt;

ecc = link;

stats_out = examples/ecc_mesh88_config_1_1.000_link_3.m;

END Configuration File: examples/ecc_mesh88_config_1_1.000_link_3
1
Received nack credit for flit 16
Requeued flit 16
1
7
1
1
Received nack credit for flit 1268
Requeued flit 1268
3
Received nack credit for flit 1130
Requeued flit 1130
1
Received nack credit for flit 125
Requeued flit 125
1
Received nack credit for flit 864
Requeued flit 864
Received nack credit for flit 1446
Requeued flit 1446
Received nack credit for flit 1476
Requeued flit 1476
Received nack credit for flit 1158
Requeued flit 1158
4
1
3
Received nack credit for flit 502
Requeued flit 502
Received nack credit for flit 1762
Requeued flit 1762
Received nack credit for flit 2033
Requeued flit 2033
5
4
1
5
Received nack credit for flit 1172
Requeued flit 1172
Received nack credit for flit 1000
Requeued flit 1000
Received nack credit for flit 3106
Requeued flit 3106
Received nack credit for flit 1379
Requeued flit 1379
2
1
Received nack credit for flit 3178
Requeued flit 3178
2
Received nack credit for flit 3971
Requeued flit 3971
Received nack credit for flit 3636
Requeued flit 3636
1
3
Received nack credit for flit 3646
Requeued flit 3646
Received nack credit for flit 2031
Requeued flit 2031
3
1
2
Received nack credit for flit 4196
Requeued flit 4196
Received nack credit for flit 5551
Requeued flit 5551
Received nack credit for flit 3472
Requeued flit 3472
2
5
Received nack credit for flit 3098
Requeued flit 3098
Received nack credit for flit 1958
Requeued flit 1958
5
1
2
Received nack credit for flit 4996
Requeued flit 4996
3
Received nack credit for flit 6971
Requeued flit 6971
Received nack credit for flit 6922
Requeued flit 6922
2
Received nack credit for flit 2385
Requeued flit 2385
3
6
3
Received nack credit for flit 7140
Requeued flit 7140
Received nack credit for flit 4416
Requeued flit 4416
Received nack credit for flit 5297
Requeued flit 5297
Received nack credit for flit 5491
Requeued flit 5491
1
2
4
Received nack credit for flit 8920
Requeued flit 8920
Received nack credit for flit 6143
Requeued flit 6143
Received nack credit for flit 5067
Requeued flit 5067
1
1
Received nack credit for flit 8699
Requeued flit 8699
Received nack credit for flit 9704
Requeued flit 9704
7
Received nack credit for flit 4500
Requeued flit 4500
3
Received nack credit for flit 10553
Requeued flit 10553
5
Received nack credit for flit 5783
Requeued flit 5783
1
3
5
Received nack credit for flit 9177
Requeued flit 9177
2
Received nack credit for flit 8959
Requeued flit 8959
Received nack credit for flit 9575
Requeued flit 9575
Received nack credit for flit 4657
Requeued flit 4657
2
3
2
Received nack credit for flit 8498
Requeued flit 8498
Received nack credit for flit 9895
Requeued flit 9895
Received nack credit for flit 13094
Requeued flit 13094
1
1
2
Received nack credit for flit 12868
Requeued flit 12868
Received nack credit for flit 13155
Requeued flit 13155
1
Received nack credit for flit 13300
Requeued flit 13300
6
Received nack credit for flit 10617
Requeued flit 10617
1
5
Received nack credit for flit 7096
Requeued flit 7096
1
Received nack credit for flit 15792
Requeued flit 15792
Received nack credit for flit 4792
Requeued flit 4792
Received nack credit for flit 11835
Requeued flit 11835
2
6
Received nack credit for flit 10887
Requeued flit 10887
Received nack credit for flit 6784
Requeued flit 6784
4
Received nack credit for flit 10120
Requeued flit 10120
1
1
2
Received nack credit for flit 14944
Requeued flit 14944
Received nack credit for flit 17376
Requeued flit 17376
Received nack credit for flit 11144
Requeued flit 11144
3
Received nack credit for flit 5801
Requeued flit 5801
6
4
Received nack credit for flit 10784
Requeued flit 10784
1
Received nack credit for flit 13475
Requeued flit 13475
2
Received nack credit for flit 16763
Requeued flit 16763
Received nack credit for flit 17075
Requeued flit 17075
1
Received nack credit for flit 19997
Requeued flit 19997
1
2
2
1
2
Received nack credit for flit 20455
Requeued flit 20455
Received nack credit for flit 13503
Requeued flit 13503
Received nack credit for flit 14474
Requeued flit 14474
Received nack credit for flit 20354
Requeued flit 20354
Received nack credit for flit 18099
Requeued flit 18099
1
Received nack credit for flit 21118
Requeued flit 21118
2
1
Received nack credit for flit 14175
Requeued flit 14175
Received nack credit for flit 16940
Requeued flit 16940
3
1
1
Received nack credit for flit 10261
Requeued flit 10261
6
Received nack credit for flit 20403
Requeued flit 20403
Received nack credit for flit 22062
Requeued flit 22062
Received nack credit for flit 6567
Requeued flit 6567
1
4
Received nack credit for flit 16162
Requeued flit 16162
Received nack credit for flit 10254
Requeued flit 10254
7
Received nack credit for flit 5590
Requeued flit 5590
1
1
3
1
2
Received nack credit for flit 24015
Requeued flit 24015
Received nack credit for flit 24175
Requeued flit 24175
2
Received nack credit for flit 11215
Requeued flit 11215
Received nack credit for flit 13042
Requeued flit 13042
2
Received nack credit for flit 24262
Requeued flit 24262
Received nack credit for flit 23064
Requeued flit 23064
1
1
Received nack credit for flit 17947
Requeued flit 17947
Received nack credit for flit 24824
Requeued flit 24824
1
Received nack credit for flit 22042
Requeued flit 22042
1
2
Received nack credit for flit 25183
Requeued flit 25183
1
3
Received nack credit for flit 25367
Requeued flit 25367
Received nack credit for flit 13466
Requeued flit 13466
1
Received nack credit for flit 24990
Requeued flit 24990
Received nack credit for flit 16304
Requeued flit 16304
2
Received nack credit for flit 25548
Requeued flit 25548
Received nack credit for flit 16912
Requeued flit 16912
1
1
1
1
Received nack credit for flit 18946
Requeued flit 18946
2
Received nack credit for flit 18141
Requeued flit 18141
Received nack credit for flit 26608
Requeued flit 26608
Received nack credit for flit 26671
Requeued flit 26671
Received nack credit for flit 17776
Requeued flit 17776
1
1
3
1
1
1
1
Received nack credit for flit 18589
Requeued flit 18589
4
Received nack credit for flit 27271
Requeued flit 27271
Received nack credit for flit 9561
Requeued flit 9561
Received nack credit for flit 26591
Requeued flit 26591
Received nack credit for flit 22475
Requeued flit 22475
Received nack credit for flit 19021
Requeued flit 19021
Received nack credit for flit 16554
Requeued flit 16554
1
1
Received nack credit for flit 20964
Requeued flit 20964
3
Received nack credit for flit 25091
Requeued flit 25091
Received nack credit for flit 18388
Requeued flit 18388
4
Received nack credit for flit 14026
Requeued flit 14026
1
1
Received nack credit for flit 29192
Requeued flit 29192
3
Received nack credit for flit 22700
Requeued flit 22700
Received nack credit for flit 25510
Requeued flit 25510
4
5
3
Received nack credit for flit 19220
Requeued flit 19220
2
4
4
Received nack credit for flit 17996
Requeued flit 17996
Received nack credit for flit 10929
Requeued flit 10929
4
1
Received nack credit for flit 22619
Requeued flit 22619
Received nack credit for flit 22538
Requeued flit 22538
Received nack credit for flit 20972
Requeued flit 20972
3
2
Received nack credit for flit 19397
Requeued flit 19397
Received nack credit for flit 28028
Requeued flit 28028
1
Received nack credit for flit 21131
Requeued flit 21131
Received nack credit for flit 27523
Requeued flit 27523
Received nack credit for flit 30701
Requeued flit 30701
1
1
Received nack credit for flit 24963
Requeued flit 24963
Received nack credit for flit 21241
Requeued flit 21241
1
Received nack credit for flit 32359
Requeued flit 32359
1
1
Received nack credit for flit 33735
Requeued flit 33735
Received nack credit for flit 24010
Requeued flit 24010
2
1
1
1
Received nack credit for flit 23095
Requeued flit 23095
Received nack credit for flit 35210
Requeued flit 35210
Received nack credit for flit 35375
Requeued flit 35375
5
1
1
1
Received nack credit for flit 35544
Requeued flit 35544
Received nack credit for flit 15943
Requeued flit 15943
Received nack credit for flit 23630
Requeued flit 23630
Received nack credit for flit 24773
Requeued flit 24773
Received nack credit for flit 24185
Requeued flit 24185
1
3
Received nack credit for flit 36560
Requeued flit 36560
Received nack credit for flit 24875
Requeued flit 24875
2
Received nack credit for flit 31556
Requeued flit 31556
3
2
Received nack credit for flit 22871
Requeued flit 22871
4
Received nack credit for flit 24711
Requeued flit 24711
Received nack credit for flit 13526
Requeued flit 13526
8
Received nack credit for flit 11631
Requeued flit 11631
7
2
3
1
Received nack credit for flit 17950
Requeued flit 17950
Received nack credit for flit 10929
Requeued flit 10929
Received nack credit for flit 39479
Requeued flit 39479
Received nack credit for flit 24227
Requeued flit 24227
2
Received nack credit for flit 35188
Requeued flit 35188
1
3
Received nack credit for flit 28373
Requeued flit 28373
5
Received nack credit for flit 18472
Requeued flit 18472
Received nack credit for flit 31115
Requeued flit 31115
1
Received nack credit for flit 40437
Requeued flit 40437
9
Received nack credit for flit 22660
Requeued flit 22660
1
1
Received nack credit for flit 31340
Requeued flit 31340
3
Received nack credit for flit 28669
Requeued flit 28669
Received nack credit for flit 29752
Requeued flit 29752
3
7
Received nack credit for flit 37196
Requeued flit 37196
1
Received nack credit for flit 43216
Requeued flit 43216
Received nack credit for flit 13232
Requeued flit 13232
9
2
1
Received nack credit for flit 12471
Requeued flit 12471
1
Received nack credit for flit 27886
Requeued flit 27886
5
Received nack credit for flit 43848
Requeued flit 43848
2
Received nack credit for flit 43992
Requeued flit 43992
3
Received nack credit for flit 32250
Requeued flit 32250
1
Received nack credit for flit 31500
Requeued flit 31500
Received nack credit for flit 33468
Requeued flit 33468
Received nack credit for flit 29310
Requeued flit 29310
2
Received nack credit for flit 31271
Requeued flit 31271
2
Received nack credit for flit 29879
Requeued flit 29879
2
1
Received nack credit for flit 45442
Requeued flit 45442
1
Received nack credit for flit 30526
Requeued flit 30526
1
7
Received nack credit for flit 46482
Requeued flit 46482
1
Received nack credit for flit 46671
Requeued flit 46671
Received nack credit for flit 14184
Requeued flit 14184
Received nack credit for flit 46693
Requeued flit 46693
1
1
Received nack credit for flit 32513
Requeued flit 32513
2
1
Received nack credit for flit 33181
Requeued flit 33181
3
Received nack credit for flit 45657
Requeued flit 45657
1
2
Received nack credit for flit 42411
Requeued flit 42411
Received nack credit for flit 44024
Requeued flit 44024
3
Received nack credit for flit 26149
Requeued flit 26149
Received nack credit for flit 48375
Requeued flit 48375
1
2
Received nack credit for flit 22533
Requeued flit 22533
Received nack credit for flit 39259
Requeued flit 39259
Received nack credit for flit 22185
Requeued flit 22185
1
Received nack credit for flit 38595
Requeued flit 38595
2
Received nack credit for flit 27322
Requeued flit 27322
1
2
Received nack credit for flit 35522
Requeued flit 35522
Received nack credit for flit 29450
Requeued flit 29450
1
1
Received nack credit for flit 52031
Requeued flit 52031
3
Received nack credit for flit 35878
Requeued flit 35878
2
Received nack credit for flit 28437
Requeued flit 28437
Received nack credit for flit 33735
Requeued flit 33735
1
4
10
Received nack credit for flit 52693
Requeued flit 52693
Received nack credit for flit 16030
Requeued flit 16030
4
Received nack credit for flit 16645
Requeued flit 16645
1
Received nack credit for flit 24018
Requeued flit 24018
Received nack credit for flit 37010
Requeued flit 37010
3
Received nack credit for flit 54594
Requeued flit 54594
4
Received nack credit for flit 20583
Requeued flit 20583
1
1
Received nack credit for flit 56549
Requeued flit 56549
Received nack credit for flit 56869
Requeued flit 56869
7
1
Received nack credit for flit 25658
Requeued flit 25658
4
9
Received nack credit for flit 39233
Requeued flit 39233
Received nack credit for flit 28090
Requeued flit 28090
Received nack credit for flit 11086
Requeued flit 11086
1
Received nack credit for flit 39678
Requeued flit 39678
1
Received nack credit for flit 54100
Requeued flit 54100
8
Received nack credit for flit 13110
Requeued flit 13110
1
Received nack credit for flit 61656
Requeued flit 61656
3
2
1
Received nack credit for flit 33813
Requeued flit 33813
Received nack credit for flit 32717
Requeued flit 32717
Received nack credit for flit 62303
Requeued flit 62303
4
1
Received nack credit for flit 42994
Requeued flit 42994
1
Received nack credit for flit 28497
Requeued flit 28497
Received nack credit for flit 63052
Requeued flit 63052
9
2
Received nack credit for flit 13263
Requeued flit 13263
2
Received nack credit for flit 33578
Requeued flit 33578
4
8
Received nack credit for flit 44245
Requeued flit 44245
4
Received nack credit for flit 23240
Requeued flit 23240
Received nack credit for flit 31364
Requeued flit 31364
1
Received nack credit for flit 59108
Requeued flit 59108
1
Received nack credit for flit 64744
Requeued flit 64744
1
Received nack credit for flit 64960
Requeued flit 64960
Received nack credit for flit 43942
Requeued flit 43942
3
1
8
Received nack credit for flit 43341
Requeued flit 43341
Received nack credit for flit 50100
Requeued flit 50100
1
Received nack credit for flit 27795
Requeued flit 27795
7
Received nack credit for flit 66070
Requeued flit 66070
Received nack credit for flit 36995
Requeued flit 36995
2
1
1
Received nack credit for flit 31134
Requeued flit 31134
Received nack credit for flit 45057
Requeued flit 45057
Received nack credit for flit 66508
Requeued flit 66508
4
2
Received nack credit for flit 31693
Requeued flit 31693
2
Received nack credit for flit 59011
Requeued flit 59011
9
Received nack credit for flit 44103
Requeued flit 44103
Received nack credit for flit 16071
Requeued flit 16071
2
4
2
4
Received nack credit for flit 44888
Requeued flit 44888
Received nack credit for flit 57306
Requeued flit 57306
Received nack credit for flit 66809
Requeued flit 66809
Received nack credit for flit 49146
Requeued flit 49146
1
Received nack credit for flit 69375
Requeued flit 69375
1
4
5
Received nack credit for flit 60963
Requeued flit 60963
Received nack credit for flit 42440
Requeued flit 42440
Received nack credit for flit 14175
Requeued flit 14175
1
2
1
1
Received nack credit for flit 70600
Requeued flit 70600
Received nack credit for flit 32225
Requeued flit 32225
Received nack credit for flit 53180
Requeued flit 53180
1
1
Received nack credit for flit 49045
Requeued flit 49045
Received nack credit for flit 61284
Requeued flit 61284
Received nack credit for flit 71160
Requeued flit 71160
1
1
Received nack credit for flit 47577
Requeued flit 47577
Received nack credit for flit 48534
Requeued flit 48534
1
5
Received nack credit for flit 71490
Requeued flit 71490
Received nack credit for flit 60953
Requeued flit 60953
4
Received nack credit for flit 41635
Requeued flit 41635
3
Received nack credit for flit 50188
Requeued flit 50188
2
4
Received nack credit for flit 74010
Requeued flit 74010
Received nack credit for flit 34560
Requeued flit 34560
2
Received nack credit for flit 57804
Requeued flit 57804
1
5
6
Received nack credit for flit 66722
Requeued flit 66722
Received nack credit for flit 45087
Requeued flit 45087
Received nack credit for flit 21759
Requeued flit 21759
1
1
1
Received nack credit for flit 76135
Requeued flit 76135
Received nack credit for flit 50329
Requeued flit 50329
3
1
Received nack credit for flit 35278
Requeued flit 35278
Received nack credit for flit 76383
Requeued flit 76383
Received nack credit for flit 76703
Requeued flit 76703
3
5
Received nack credit for flit 59585
Requeued flit 59585
Received nack credit for flit 62595
Requeued flit 62595
1
4
7
5
Received nack credit for flit 53901
Requeued flit 53901
2
1
Received nack credit for flit 37574
Requeued flit 37574
Received nack credit for flit 26806
Requeued flit 26806
2
2
Received nack credit for flit 48712
Requeued flit 48712
Received nack credit for flit 52644
Requeued flit 52644
2
Received nack credit for flit 60182
Requeued flit 60182
Received nack credit for flit 78191
Requeued flit 78191
Received nack credit for flit 41786
Requeued flit 41786
Received nack credit for flit 70942
Requeued flit 70942
1
7
1
Received nack credit for flit 79343
Requeued flit 79343
1
4
Received nack credit for flit 45299
Requeued flit 45299
Received nack credit for flit 72198
Requeued flit 72198
Received nack credit for flit 60883
Requeued flit 60883
Received nack credit for flit 52028
Requeued flit 52028
3
4
Received nack credit for flit 54579
Requeued flit 54579
1
Received nack credit for flit 54602
Requeued flit 54602
Received nack credit for flit 52953
Requeued flit 52953
6
Received nack credit for flit 26559
Requeued flit 26559
6
6
2
Received nack credit for flit 26169
Requeued flit 26169
Received nack credit for flit 37866
Requeued flit 37866
Received nack credit for flit 54176
Requeued flit 54176
1
4
6
Received nack credit for flit 82223
Requeued flit 82223
1
6
Received nack credit for flit 57340
Requeued flit 57340
Received nack credit for flit 69543
Requeued flit 69543
Received nack credit for flit 40911
Requeued flit 40911
4
1
Received nack credit for flit 80082
Requeued flit 80082
1
Received nack credit for flit 57461
Requeued flit 57461
Received nack credit for flit 74748
Requeued flit 74748
4
Received nack credit for flit 83327
Requeued flit 83327
1
4
Received nack credit for flit 55478
Requeued flit 55478
2
Received nack credit for flit 29071
Requeued flit 29071
Received nack credit for flit 55571
Requeued flit 55571
1
Received nack credit for flit 39041
Requeued flit 39041
Received nack credit for flit 84043
Requeued flit 84043
4
1
7
Received nack credit for flit 71581
Requeued flit 71581
Received nack credit for flit 58421
Requeued flit 58421
1
1
6
Received nack credit for flit 41626
Requeued flit 41626
Received nack credit for flit 64748
Requeued flit 64748
3
1
Received nack credit for flit 51452
Requeued flit 51452
1
Received nack credit for flit 85199
Requeued flit 85199
Received nack credit for flit 77011
Requeued flit 77011
Received nack credit for flit 77724
Requeued flit 77724
Received nack credit for flit 85600
Requeued flit 85600
3
Received nack credit for flit 76844
Requeued flit 76844
3
2
Received nack credit for flit 83717
Requeued flit 83717
Received nack credit for flit 77275
Requeued flit 77275
2
Received nack credit for flit 83754
Requeued flit 83754
1
1
4
3
Received nack credit for flit 59350
Requeued flit 59350
Received nack credit for flit 31279
Requeued flit 31279
Received nack credit for flit 88272
Requeued flit 88272
Received nack credit for flit 55462
Requeued flit 55462
3
1
Received nack credit for flit 78947
Requeued flit 78947
2
Received nack credit for flit 89207
Requeued flit 89207
Received nack credit for flit 84533
Requeued flit 84533
1
Received nack credit for flit 90607
Requeued flit 90607
1
2
Received nack credit for flit 79628
Requeued flit 79628
Received nack credit for flit 91200
Requeued flit 91200
2
4
2
Received nack credit for flit 59847
Requeued flit 59847
Received nack credit for flit 62986
Requeued flit 62986
Received nack credit for flit 63528
Requeued flit 63528
3
5
3
Received nack credit for flit 49013
Requeued flit 49013
1
Received nack credit for flit 24273
Requeued flit 24273
Received nack credit for flit 42121
Requeued flit 42121
Received nack credit for flit 84299
Requeued flit 84299
2
9
Received nack credit for flit 27250
Requeued flit 27250
Received nack credit for flit 70332
Requeued flit 70332
4
3
Received nack credit for flit 29430
Requeued flit 29430
Received nack credit for flit 68366
Requeued flit 68366
7
Received nack credit for flit 31373
Requeued flit 31373
1
Received nack credit for flit 71484
Requeued flit 71484
4
2
Received nack credit for flit 44525
Requeued flit 44525
Received nack credit for flit 65011
Requeued flit 65011
2
6
Received nack credit for flit 56054
Requeued flit 56054
2
Received nack credit for flit 30472
Requeued flit 30472
1
1
Received nack credit for flit 82098
Requeued flit 82098
Received nack credit for flit 65442
Requeued flit 65442
Received nack credit for flit 65393
Requeued flit 65393
4
4
1
Received nack credit for flit 59021
Requeued flit 59021
Received nack credit for flit 67902
Requeued flit 67902
4
Received nack credit for flit 86299
Requeued flit 86299
Received nack credit for flit 65166
Requeued flit 65166
3
Received nack credit for flit 65835
Requeued flit 65835
1
Received nack credit for flit 98720
Requeued flit 98720
1
3
Received nack credit for flit 78475
Requeued flit 78475
1
Received nack credit for flit 45506
Requeued flit 45506
Received nack credit for flit 75388
Requeued flit 75388
1
Received nack credit for flit 66313
Requeued flit 66313
2
5
Received nack credit for flit 66119
Requeued flit 66119
Received nack credit for flit 31582
Requeued flit 31582
9
5
Received nack credit for flit 30992
Requeued flit 30992
1
5
Received nack credit for flit 32329
Requeued flit 32329
1
Received nack credit for flit 101044
Requeued flit 101044
Received nack credit for flit 31456
Requeued flit 31456
Received nack credit for flit 101408
Requeued flit 101408
3
Received nack credit for flit 83699
Requeued flit 83699
5
1
3
Received nack credit for flit 81435
Requeued flit 81435
Received nack credit for flit 85899
Requeued flit 85899
Received nack credit for flit 47045
Requeued flit 47045
1
4
1
Received nack credit for flit 71277
Requeued flit 71277
Received nack credit for flit 47085
Requeued flit 47085
Received nack credit for flit 91299
Requeued flit 91299
2
1
2
1
Received nack credit for flit 70899
Requeued flit 70899
Received nack credit for flit 71941
Requeued flit 71941
Received nack credit for flit 68606
Requeued flit 68606
Received nack credit for flit 67783
Requeued flit 67783
4
6
Received nack credit for flit 33830
Requeued flit 33830
1
Received nack credit for flit 32760
Requeued flit 32760
Received nack credit for flit 93739
Requeued flit 93739
1
Received nack credit for flit 106368
Requeued flit 106368
9
Received nack credit for flit 30015
Requeued flit 30015
1
1
Received nack credit for flit 107168
Requeued flit 107168
6
Received nack credit for flit 71758
Requeued flit 71758
Received nack credit for flit 41832
Requeued flit 41832
2
3
Received nack credit for flit 95643
Requeued flit 95643
1
Received nack credit for flit 96988
Requeued flit 96988
Received nack credit for flit 74338
Requeued flit 74338
2
2
Received nack credit for flit 75323
Requeued flit 75323
Received nack credit for flit 92877
Requeued flit 92877
3
6
1
Received nack credit for flit 47871
Requeued flit 47871
1
Received nack credit for flit 64644
Requeued flit 64644
Received nack credit for flit 97460
Requeued flit 97460
Received nack credit for flit 111080
Requeued flit 111080
4
1
Received nack credit for flit 75571
Requeued flit 75571
Received nack credit for flit 111512
Requeued flit 111512
3
Received nack credit for flit 95101
Requeued flit 95101
5
2
2
1
11
Received nack credit for flit 51305
Requeued flit 51305
Received nack credit for flit 75378
Requeued flit 75378
Received nack credit for flit 112196
Requeued flit 112196
Received nack credit for flit 113304
Requeued flit 113304
4
Received nack credit for flit 27447
Requeued flit 27447
1
8
Received nack credit for flit 80261
Requeued flit 80261
Received nack credit for flit 66307
Requeued flit 66307
Received nack credit for flit 101922
Requeued flit 101922
3
Received nack credit for flit 102019
Requeued flit 102019
3
Received nack credit for flit 65825
Requeued flit 65825
3
1
Received nack credit for flit 53295
Requeued flit 53295
1
Received nack credit for flit 77321
Requeued flit 77321
Received nack credit for flit 76966
Requeued flit 76966
1
1
Received nack credit for flit 89859
Requeued flit 89859
1
2
Received nack credit for flit 77222
Requeued flit 77222
Received nack credit for flit 114683
Requeued flit 114683
3
Received nack credit for flit 116425
Requeued flit 116425
5
Received nack credit for flit 80227
Requeued flit 80227
2
3
Received nack credit for flit 81996
Requeued flit 81996
Received nack credit for flit 100548
Requeued flit 100548
1
Received nack credit for flit 56973
Requeued flit 56973
Received nack credit for flit 81525
Requeued flit 81525
1
Received nack credit for flit 90620
Requeued flit 90620
1
1
1
Received nack credit for flit 83117
Requeued flit 83117
Received nack credit for flit 118799
Requeued flit 118799
Received nack credit for flit 118875
Requeued flit 118875
1
6
1
Received nack credit for flit 82069
Requeued flit 82069
Received nack credit for flit 74043
Requeued flit 74043
Received nack credit for flit 90465
Requeued flit 90465
1
4
Received nack credit for flit 79897
Requeued flit 79897
2
2
Received nack credit for flit 96123
Requeued flit 96123
6
Received nack credit for flit 109157
Requeued flit 109157
Received nack credit for flit 52222
Requeued flit 52222
Received nack credit for flit 79684
Requeued flit 79684
6
Received nack credit for flit 78843
Requeued flit 78843
1
1
Received nack credit for flit 80774
Requeued flit 80774
3
Received nack credit for flit 96419
Requeued flit 96419
Received nack credit for flit 42873
Requeued flit 42873
1
1
1
Received nack credit for flit 107579
Requeued flit 107579
Received nack credit for flit 110123
Requeued flit 110123
Received nack credit for flit 123125
Requeued flit 123125
1
1
Received nack credit for flit 121784
Requeued flit 121784
4
Received nack credit for flit 87755
Requeued flit 87755
5
Received nack credit for flit 82614
Requeued flit 82614
2
2
Received nack credit for flit 85191
Requeued flit 85191
5
Received nack credit for flit 96948
Requeued flit 96948
Received nack credit for flit 81231
Requeued flit 81231
3
Received nack credit for flit 88570
Requeued flit 88570
Received nack credit for flit 100763
Requeued flit 100763
1
Received nack credit for flit 124347
Requeued flit 124347
8
2
5
Received nack credit for flit 42962
Requeued flit 42962
1
Received nack credit for flit 68098
Requeued flit 68098
Received nack credit for flit 55434
Requeued flit 55434
Received nack credit for flit 126213
Requeued flit 126213
2
Received nack credit for flit 97932
Requeued flit 97932
3
4
Received nack credit for flit 113987
Requeued flit 113987
Received nack credit for flit 40785
Requeued flit 40785
5
3
1
Received nack credit for flit 39200
Requeued flit 39200
1
Received nack credit for flit 57415
Requeued flit 57415
Received nack credit for flit 93242
Requeued flit 93242
1
Received nack credit for flit 87585
Requeued flit 87585
Received nack credit for flit 89097
Requeued flit 89097
8
1
3
1
Received nack credit for flit 60915
Requeued flit 60915
3
Received nack credit for flit 90158
Requeued flit 90158
Received nack credit for flit 101443
Requeued flit 101443
Received nack credit for flit 92341
Requeued flit 92341
Received nack credit for flit 60817
Requeued flit 60817
1
3
Received nack credit for flit 99643
Requeued flit 99643
Received nack credit for flit 60152
Requeued flit 60152
4
5
1
Received nack credit for flit 82700
Requeued flit 82700
Received nack credit for flit 40744
Requeued flit 40744
5
1
4
1
Received nack credit for flit 113074
Requeued flit 113074
3
Received nack credit for flit 45647
Requeued flit 45647
Received nack credit for flit 101740
Requeued flit 101740
Received nack credit for flit 119068
Requeued flit 119068
Received nack credit for flit 109973
Requeued flit 109973
Received nack credit for flit 90208
Requeued flit 90208
4
1
Received nack credit for flit 42334
Requeued flit 42334
1
Received nack credit for flit 116231
Requeued flit 116231
7
4
1
Received nack credit for flit 44074
Requeued flit 44074
Received nack credit for flit 88300
Requeued flit 88300
Received nack credit for flit 89129
Requeued flit 89129
Received nack credit for flit 94109
Requeued flit 94109
2
3
2
Received nack credit for flit 48521
Requeued flit 48521
5
Received nack credit for flit 59526
Requeued flit 59526
2
Received nack credit for flit 62374
Requeued flit 62374
Received nack credit for flit 77332
Requeued flit 77332
6
Received nack credit for flit 118420
Requeued flit 118420
Received nack credit for flit 92866
Requeued flit 92866
7
1
1
Received nack credit for flit 79625
Requeued flit 79625
6
Received nack credit for flit 97645
Requeued flit 97645
1
Received nack credit for flit 87641
Requeued flit 87641
1
Received nack credit for flit 44759
Requeued flit 44759
6
Received nack credit for flit 121663
Requeued flit 121663
5
Received nack credit for flit 55477
Requeued flit 55477
Received nack credit for flit 128156
Requeued flit 128156
Received nack credit for flit 44150
Requeued flit 44150
2
4
Received nack credit for flit 123600
Requeued flit 123600
Received nack credit for flit 114242
Requeued flit 114242
4
1
6
3
Received nack credit for flit 64930
Requeued flit 64930
Received nack credit for flit 111722
Requeued flit 111722
Received nack credit for flit 90035
Requeued flit 90035
Received nack credit for flit 72200
Requeued flit 72200
1
1
Received nack credit for flit 92369
Requeued flit 92369
Received nack credit for flit 124495
Requeued flit 124495
6
8
Received nack credit for flit 110627
Requeued flit 110627
Received nack credit for flit 35582
Requeued flit 35582
4
1
1
Received nack credit for flit 94054
Requeued flit 94054
Received nack credit for flit 64765
Requeued flit 64765
Received nack credit for flit 98674
Requeued flit 98674
3
Received nack credit for flit 63904
Requeued flit 63904
3
Received nack credit for flit 97459
Requeued flit 97459
1
Received nack credit for flit 116405
Requeued flit 116405
2
Received nack credit for flit 116752
Requeued flit 116752
1
Received nack credit for flit 118111
Requeued flit 118111
3
8
4
Received nack credit for flit 57222
Requeued flit 57222
Received nack credit for flit 76812
Requeued flit 76812
Received nack credit for flit 70073
Requeued flit 70073
1
5
Received nack credit for flit 50566
Requeued flit 50566
3
Received nack credit for flit 130711
Requeued flit 130711
1
1
Received nack credit for flit 93537
Requeued flit 93537
Received nack credit for flit 104773
Requeued flit 104773
Received nack credit for flit 106109
Requeued flit 106109
9
5
Received nack credit for flit 90627
Requeued flit 90627
8
Received nack credit for flit 84846
Requeued flit 84846
2
Received nack credit for flit 47936
Requeued flit 47936
Received nack credit for flit 89137
Requeued flit 89137
4
7
Received nack credit for flit 71989
Requeued flit 71989
Received nack credit for flit 103602
Requeued flit 103602
4
4
Received nack credit for flit 114260
Requeued flit 114260
Received nack credit for flit 69405
Requeued flit 69405
3
3
Received nack credit for flit 115715
Requeued flit 115715
Received nack credit for flit 97592
Requeued flit 97592
8
4
5
Received nack credit for flit 54866
Requeued flit 54866
Received nack credit for flit 100931
Requeued flit 100931
Received nack credit for flit 107176
Requeued flit 107176
1
Received nack credit for flit 109565
Requeued flit 109565
2
Received nack credit for flit 100455
Requeued flit 100455
4
Received nack credit for flit 129618
Requeued flit 129618
5
1
4
4
Received nack credit for flit 77949
Requeued flit 77949
Received nack credit for flit 119046
Requeued flit 119046
Received nack credit for flit 48878
Requeued flit 48878
Received nack credit for flit 70962
Requeued flit 70962
1
5
Received nack credit for flit 132277
Requeued flit 132277
6
Received nack credit for flit 64103
Requeued flit 64103
3
7
Received nack credit for flit 48054
Requeued flit 48054
Received nack credit for flit 131585
Requeued flit 131585
Received nack credit for flit 106631
Requeued flit 106631
1
2
6
Received nack credit for flit 120416
Requeued flit 120416
Received nack credit for flit 68137
Requeued flit 68137
Received nack credit for flit 48968
Requeued flit 48968
5
9
Received nack credit for flit 49519
Requeued flit 49519
3
2
1
1
Received nack credit for flit 109876
Requeued flit 109876
Received nack credit for flit 112938
Requeued flit 112938
Received nack credit for flit 56112
Requeued flit 56112
Received nack credit for flit 134192
Requeued flit 134192
Received nack credit for flit 108356
Requeued flit 108356
10
1
Received nack credit for flit 34312
Requeued flit 34312
1
Received nack credit for flit 135541
Requeued flit 135541
4
6
7
6
5
Received nack credit for flit 112325
Requeued flit 112325
Received nack credit for flit 49041
Requeued flit 49041
4
Received nack credit for flit 53752
Requeued flit 53752
Received nack credit for flit 107387
Requeued flit 107387
Received nack credit for flit 58335
Requeued flit 58335
Received nack credit for flit 116429
Requeued flit 116429
Received nack credit for flit 50095
Requeued flit 50095
2
1
10
Received nack credit for flit 95433
Requeued flit 95433
Received nack credit for flit 123821
Requeued flit 123821
Received nack credit for flit 100675
Requeued flit 100675
1
Received nack credit for flit 124913
Requeued flit 124913
1
Received nack credit for flit 123748
Requeued flit 123748
2
1
Received nack credit for flit 69566
Requeued flit 69566
Received nack credit for flit 135717
Requeued flit 135717
1
Received nack credit for flit 124525
Requeued flit 124525
1
7
1
Received nack credit for flit 96374
Requeued flit 96374
4
1
Received nack credit for flit 45814
Requeued flit 45814
Received nack credit for flit 115629
Requeued flit 115629
Received nack credit for flit 57190
Requeued flit 57190
1
1
Received nack credit for flit 126394
Requeued flit 126394
11
4
1
Received nack credit for flit 133648
Requeued flit 133648
Received nack credit for flit 135216
Requeued flit 135216
Received nack credit for flit 39687
Requeued flit 39687
1
Received nack credit for flit 125596
Requeued flit 125596
2
1
Received nack credit for flit 125170
Requeued flit 125170
Received nack credit for flit 119225
Requeued flit 119225
Received nack credit for flit 112124
Requeued flit 112124
1
Received nack credit for flit 135436
Requeued flit 135436
1
Received nack credit for flit 126675
Requeued flit 126675
Received nack credit for flit 130561
Requeued flit 130561
4
Received nack credit for flit 122344
Requeued flit 122344
6
3
6
Received nack credit for flit 86358
Requeued flit 86358
5
Received nack credit for flit 74095
Requeued flit 74095
Received nack credit for flit 72794
Requeued flit 72794
Received nack credit for flit 77597
Requeued flit 77597
3
Received nack credit for flit 58534
Requeued flit 58534
1
Received nack credit for flit 128340
Requeued flit 128340
1
Received nack credit for flit 128652
Requeued flit 128652
1
Received nack credit for flit 130238
Requeued flit 130238
1
Received nack credit for flit 103470
Requeued flit 103470
4
Received nack credit for flit 52878
Requeued flit 52878
2
Received nack credit for flit 101439
Requeued flit 101439
2
1
1
3
Received nack credit for flit 76441
Requeued flit 76441
Received nack credit for flit 137435
Requeued flit 137435
Received nack credit for flit 147057
Requeued flit 147057
Received nack credit for flit 100590
Requeued flit 100590
3
3
7
Received nack credit for flit 129587
Requeued flit 129587
2
Received nack credit for flit 57358
Requeued flit 57358
Received nack credit for flit 48479
Requeued flit 48479
Received nack credit for flit 95269
Requeued flit 95269
1
1
Received nack credit for flit 132258
Requeued flit 132258
Received nack credit for flit 155618
Requeued flit 155618
1
1
Received nack credit for flit 155618
Requeued flit 155618
5
4
Received nack credit for flit 136118
Requeued flit 136118
Received nack credit for flit 142777
Requeued flit 142777
Received nack credit for flit 119928
Requeued flit 119928
3
1
5
6
2
Received nack credit for flit 142839
Requeued flit 142839
Received nack credit for flit 77999
Requeued flit 77999
Received nack credit for flit 88261
Requeued flit 88261
Received nack credit for flit 110747
Requeued flit 110747
Received nack credit for flit 89981
Requeued flit 89981
2
5
Received nack credit for flit 133449
Requeued flit 133449
Received nack credit for flit 53174
Requeued flit 53174
2
Received nack credit for flit 76294
Requeued flit 76294
5
Received nack credit for flit 73352
Requeued flit 73352
4
2
5
Received nack credit for flit 85674
Requeued flit 85674
2
Received nack credit for flit 99975
Requeued flit 99975
Received nack credit for flit 59383
Requeued flit 59383
Received nack credit for flit 92722
Requeued flit 92722
2
3
2
1
Received nack credit for flit 133945
Requeued flit 133945
1
Received nack credit for flit 125340
Requeued flit 125340
Received nack credit for flit 96922
Requeued flit 96922
6
Received nack credit for flit 134302
Requeued flit 134302
Received nack credit for flit 149382
Requeued flit 149382
1
Received nack credit for flit 89614
Requeued flit 89614
Received nack credit for flit 129064
Requeued flit 129064
5
1
8
Received nack credit for flit 138496
Requeued flit 138496
Received nack credit for flit 124944
Requeued flit 124944
Received nack credit for flit 55736
Requeued flit 55736
6
4
1
Received nack credit for flit 111477
Requeued flit 111477
1
2
Received nack credit for flit 59328
Requeued flit 59328
Received nack credit for flit 139125
Requeued flit 139125
2
Received nack credit for flit 128722
Requeued flit 128722
Received nack credit for flit 76790
Requeued flit 76790
4
Received nack credit for flit 150336
Requeued flit 150336
1
Received nack credit for flit 55222
Requeued flit 55222
Received nack credit for flit 152558
Requeued flit 152558
5
5
Received nack credit for flit 140469
Requeued flit 140469
Received nack credit for flit 123106
Requeued flit 123106
5
1
Received nack credit for flit 112171
Requeued flit 112171
Received nack credit for flit 102070
Requeued flit 102070
1
Received nack credit for flit 129362
Requeued flit 129362
5
7
4
4
Received nack credit for flit 62665
Requeued flit 62665
Received nack credit for flit 53209
Requeued flit 53209
Received nack credit for flit 137673
Requeued flit 137673
1
Received nack credit for flit 116689
Requeued flit 116689
9
Received nack credit for flit 107686
Requeued flit 107686
Received nack credit for flit 73165
Requeued flit 73165
7
5
1
2
Received nack credit for flit 70528
Requeued flit 70528
Received nack credit for flit 82778
Requeued flit 82778
1
Received nack credit for flit 142881
Requeued flit 142881
Received nack credit for flit 115370
Requeued flit 115370
Received nack credit for flit 139851
Requeued flit 139851
1
1
1
1
Received nack credit for flit 153860
Requeued flit 153860
1
Received nack credit for flit 134461
Requeued flit 134461
Received nack credit for flit 137103
Requeued flit 137103
Received nack credit for flit 129397
Requeued flit 129397
Received nack credit for flit 102961
Requeued flit 102961
2
Received nack credit for flit 129845
Requeued flit 129845
1
2
Received nack credit for flit 142055
Requeued flit 142055
Received nack credit for flit 132755
Requeued flit 132755
2
Received nack credit for flit 111175
Requeued flit 111175
2
Received nack credit for flit 156679
Requeued flit 156679
5
Received nack credit for flit 107706
Requeued flit 107706
4
Received nack credit for flit 62222
Requeued flit 62222
1
3
6
Received nack credit for flit 141306
Requeued flit 141306
Received nack credit for flit 85226
Requeued flit 85226
Received nack credit for flit 132508
Requeued flit 132508
3
Received nack credit for flit 155254
Requeued flit 155254
4
1
Received nack credit for flit 88946
Requeued flit 88946
7
Received nack credit for flit 168247
Requeued flit 168247
1
Received nack credit for flit 119941
Requeued flit 119941
Received nack credit for flit 105462
Requeued flit 105462
5
7
5
7
Received nack credit for flit 94306
Requeued flit 94306
Received nack credit for flit 134286
Requeued flit 134286
Received nack credit for flit 65663
Requeued flit 65663
Received nack credit for flit 54910
Requeued flit 54910
10
1
3
Received nack credit for flit 50608
Requeued flit 50608
4
Received nack credit for flit 155491
Requeued flit 155491
Received nack credit for flit 140750
Requeued flit 140750
Received nack credit for flit 125018
Requeued flit 125018
5
1
Received nack credit for flit 117656
Requeued flit 117656
3
Received nack credit for flit 144777
Requeued flit 144777
1
Received nack credit for flit 140632
Requeued flit 140632
1
9
Received nack credit for flit 143407
Requeued flit 143407
1
10
Received nack credit for flit 141169
Requeued flit 141169
Received nack credit for flit 139821
Requeued flit 139821
Received nack credit for flit 128148
Requeued flit 128148
5
Received nack credit for flit 49776
Requeued flit 49776
5
2
4
Received nack credit for flit 134123
Requeued flit 134123
Received nack credit for flit 138016
Requeued flit 138016
Received nack credit for flit 60438
Requeued flit 60438
Received nack credit for flit 71248
Requeued flit 71248
4
1
Received nack credit for flit 139568
Requeued flit 139568
Received nack credit for flit 161579
Requeued flit 161579
2
1
2
Received nack credit for flit 104734
Requeued flit 104734
Received nack credit for flit 153366
Requeued flit 153366
Received nack credit for flit 122041
Requeued flit 122041
1
4
4
Received nack credit for flit 142978
Requeued flit 142978
4
11
Received nack credit for flit 74615
Requeued flit 74615
1
Received nack credit for flit 73752
Requeued flit 73752
Received nack credit for flit 162751
Requeued flit 162751
1
Received nack credit for flit 49711
Requeued flit 49711
Received nack credit for flit 138119
Requeued flit 138119
Received nack credit for flit 152131
Requeued flit 152131
1
Received nack credit for flit 140051
Requeued flit 140051
5
2
Received nack credit for flit 84743
Requeued flit 84743
Received nack credit for flit 137936
Requeued flit 137936
6
3
Received nack credit for flit 85488
Requeued flit 85488
5
Received nack credit for flit 87512
Requeued flit 87512
2
Received nack credit for flit 85589
Requeued flit 85589
8
Received nack credit for flit 108106
Requeued flit 108106
Received nack credit for flit 54977
Requeued flit 54977
6
Received nack credit for flit 123081
Requeued flit 123081
7
3
4
Received nack credit for flit 96002
Requeued flit 96002
Received nack credit for flit 160355
Requeued flit 160355
Received nack credit for flit 82128
Requeued flit 82128
2
3
Received nack credit for flit 161005
Requeued flit 161005
2
Received nack credit for flit 142313
Requeued flit 142313
3
Received nack credit for flit 91801
Requeued flit 91801
3
5
Received nack credit for flit 144683
Requeued flit 144683
2
Received nack credit for flit 99157
Requeued flit 99157
Received nack credit for flit 63240
Requeued flit 63240
Received nack credit for flit 145984
Requeued flit 145984
5
5
4
Received nack credit for flit 93026
Requeued flit 93026
Received nack credit for flit 90594
Requeued flit 90594
Received nack credit for flit 146483
Requeued flit 146483
1
Received nack credit for flit 145740
Requeued flit 145740
1
5
Received nack credit for flit 168179
Requeued flit 168179
5
Received nack credit for flit 74774
Requeued flit 74774
Received nack credit for flit 157363
Requeued flit 157363
1
1
1
Received nack credit for flit 146909
Requeued flit 146909
1
Received nack credit for flit 165681
Requeued flit 165681
Received nack credit for flit 114657
Requeued flit 114657
2
5
4
1
Received nack credit for flit 88376
Requeued flit 88376
Received nack credit for flit 148649
Requeued flit 148649
Received nack credit for flit 149136
Requeued flit 149136
Received nack credit for flit 147027
Requeued flit 147027
Received nack credit for flit 147253
Requeued flit 147253
5
2
Received nack credit for flit 64431
Requeued flit 64431
Received nack credit for flit 148071
Requeued flit 148071
1
Received nack credit for flit 151990
Requeued flit 151990
1
Received nack credit for flit 150451
Requeued flit 150451
4
1
2
3
Received nack credit for flit 127984
Requeued flit 127984
Received nack credit for flit 145591
Requeued flit 145591
Received nack credit for flit 112842
Requeued flit 112842
1
8
Received nack credit for flit 136548
Requeued flit 136548
Received nack credit for flit 161004
Requeued flit 161004
Received nack credit for flit 60351
Requeued flit 60351
7
Received nack credit for flit 75376
Requeued flit 75376
2
Received nack credit for flit 93134
Requeued flit 93134
1
6
7
Received nack credit for flit 111710
Requeued flit 111710
2
1
Received nack credit for flit 136635
Requeued flit 136635
Received nack credit for flit 130310
Requeued flit 130310
Received nack credit for flit 111517
Requeued flit 111517
Received nack credit for flit 145707
Requeued flit 145707
1
1
Received nack credit for flit 151067
Requeued flit 151067
Received nack credit for flit 153461
Requeued flit 153461
1
Received nack credit for flit 180563
Requeued flit 180563
3
4
1
Received nack credit for flit 175460
Requeued flit 175460
2
Received nack credit for flit 168489
Requeued flit 168489
Received nack credit for flit 144576
Requeued flit 144576
Received nack credit for flit 92913
Requeued flit 92913
5
Received nack credit for flit 164973
Requeued flit 164973
7
3
5
Received nack credit for flit 97997
Requeued flit 97997
Received nack credit for flit 94711
Requeued flit 94711
Received nack credit for flit 106162
Requeued flit 106162
4
1
Received nack credit for flit 154143
Requeued flit 154143
Received nack credit for flit 150137
Requeued flit 150137
2
3
Received nack credit for flit 94456
Requeued flit 94456
Received nack credit for flit 170475
Requeued flit 170475
7
1
7
Received nack credit for flit 124970
Requeued flit 124970
Received nack credit for flit 170340
Requeued flit 170340
Received nack credit for flit 88112
Requeued flit 88112
1
Received nack credit for flit 151202
Requeued flit 151202
1
6
10
Received nack credit for flit 156351
Requeued flit 156351
Received nack credit for flit 59655
Requeued flit 59655
Received nack credit for flit 67529
Requeued flit 67529
1
8
7
1
Received nack credit for flit 170167
Requeued flit 170167
Received nack credit for flit 143104
Requeued flit 143104
Received nack credit for flit 129005
Requeued flit 129005
Received nack credit for flit 152588
Requeued flit 152588
6
Received nack credit for flit 105749
Requeued flit 105749
3
4
4
Received nack credit for flit 136152
Requeued flit 136152
Received nack credit for flit 151847
Requeued flit 151847
7
Received nack credit for flit 66705
Requeued flit 66705
1
Received nack credit for flit 100237
Requeued flit 100237
Received nack credit for flit 167052
Requeued flit 167052
1
Received nack credit for flit 118362
Requeued flit 118362
6
1
2
Received nack credit for flit 62177
Requeued flit 62177
Received nack credit for flit 169616
Requeued flit 169616
Received nack credit for flit 109407
Requeued flit 109407
5
1
Received nack credit for flit 173487
Requeued flit 173487
Received nack credit for flit 159453
Requeued flit 159453
6
2
Received nack credit for flit 71654
Requeued flit 71654
Received nack credit for flit 120426
Requeued flit 120426
2
1
Received nack credit for flit 175800
Requeued flit 175800
Received nack credit for flit 174685
Requeued flit 174685
1
1
Received nack credit for flit 177278
Requeued flit 177278
Received nack credit for flit 186262
Requeued flit 186262
6
5
Received nack credit for flit 109501
Requeued flit 109501
3
Received nack credit for flit 172875
Requeued flit 172875
2
Received nack credit for flit 162138
Requeued flit 162138
Received nack credit for flit 160248
Requeued flit 160248
8
2
1
3
Received nack credit for flit 64569
Requeued flit 64569
Received nack credit for flit 124758
Requeued flit 124758
Received nack credit for flit 118524
Requeued flit 118524
Received nack credit for flit 113893
Requeued flit 113893
1
Received nack credit for flit 118511
Requeued flit 118511
1
Received nack credit for flit 169005
Requeued flit 169005
1
1
5
Received nack credit for flit 116717
Requeued flit 116717
1
Received nack credit for flit 119115
Requeued flit 119115
Received nack credit for flit 69446
Requeued flit 69446
Received nack credit for flit 162873
Requeued flit 162873
2
Received nack credit for flit 164007
Requeued flit 164007
3
6
1
3
Received nack credit for flit 117289
Requeued flit 117289
6
Received nack credit for flit 70407
Requeued flit 70407
Received nack credit for flit 173222
Requeued flit 173222
4
Received nack credit for flit 171376
Requeued flit 171376
Received nack credit for flit 120495
Requeued flit 120495
1
Received nack credit for flit 70470
Requeued flit 70470
Received nack credit for flit 130518
Requeued flit 130518
5
1
Received nack credit for flit 70679
Requeued flit 70679
Received nack credit for flit 172945
Requeued flit 172945
1
2
7
Received nack credit for flit 123354
Requeued flit 123354
Received nack credit for flit 162740
Requeued flit 162740
9
Received nack credit for flit 165303
Requeued flit 165303
1
Received nack credit for flit 62321
Requeued flit 62321
1
2
Received nack credit for flit 162827
Requeued flit 162827
Received nack credit for flit 164923
Requeued flit 164923
Received nack credit for flit 121187
Requeued flit 121187
1
Received nack credit for flit 179554
Requeued flit 179554
1
4
Received nack credit for flit 180136
Requeued flit 180136
Received nack credit for flit 165887
Requeued flit 165887
1
4
Received nack credit for flit 120711
Requeued flit 120711
1
1
Received nack credit for flit 165159
Requeued flit 165159
Received nack credit for flit 150230
Requeued flit 150230
6
Received nack credit for flit 149670
Requeued flit 149670
Received nack credit for flit 120338
Requeued flit 120338
3
4
4
Received nack credit for flit 164176
Requeued flit 164176
Received nack credit for flit 177596
Requeued flit 177596
Received nack credit for flit 115317
Requeued flit 115317
1
2
2
1
Received nack credit for flit 123029
Requeued flit 123029
Received nack credit for flit 165994
Requeued flit 165994
Received nack credit for flit 123811
Requeued flit 123811
Received nack credit for flit 150540
Requeued flit 150540
5
Received nack credit for flit 75160
Requeued flit 75160
1
Received nack credit for flit 168155
Requeued flit 168155
1
3
6
Received nack credit for flit 179601
Requeued flit 179601
2
Received nack credit for flit 180651
Requeued flit 180651
Received nack credit for flit 73111
Requeued flit 73111
1
3
Received nack credit for flit 117501
Requeued flit 117501
Received nack credit for flit 176922
Requeued flit 176922
Received nack credit for flit 176760
Requeued flit 176760
2
9
4
1
Received nack credit for flit 126191
Requeued flit 126191
Received nack credit for flit 118142
Requeued flit 118142
Received nack credit for flit 69159
Requeued flit 69159
Received nack credit for flit 179870
Requeued flit 179870
2
Received nack credit for flit 133709
Requeued flit 133709
1
2
Received nack credit for flit 179814
Requeued flit 179814
3
2
Received nack credit for flit 120129
Requeued flit 120129
Received nack credit for flit 170107
Requeued flit 170107
Received nack credit for flit 170611
Requeued flit 170611
1
Received nack credit for flit 179331
Requeued flit 179331
8
Received nack credit for flit 159970
Requeued flit 159970
4
6
1
Received nack credit for flit 169429
Requeued flit 169429
Received nack credit for flit 170786
Requeued flit 170786
Received nack credit for flit 185719
Requeued flit 185719
6
4
Received nack credit for flit 116038
Requeued flit 116038
Received nack credit for flit 122530
Requeued flit 122530
3
2
5
4
Received nack credit for flit 183598
Requeued flit 183598
Received nack credit for flit 133691
Requeued flit 133691
Received nack credit for flit 120424
Requeued flit 120424
11
Received nack credit for flit 188805
Requeued flit 188805
4
Received nack credit for flit 62014
Requeued flit 62014
2
Received nack credit for flit 121005
Requeued flit 121005
4
2
4
Received nack credit for flit 171794
Requeued flit 171794
5
3
1
1
Received nack credit for flit 161237
Requeued flit 161237
Received nack credit for flit 170310
Requeued flit 170310
Received nack credit for flit 75817
Requeued flit 75817
3
1
Received nack credit for flit 122545
Requeued flit 122545
Received nack credit for flit 184938
Requeued flit 184938
Received nack credit for flit 139047
Requeued flit 139047
Received nack credit for flit 185246
Requeued flit 185246
Received nack credit for flit 183558
Requeued flit 183558
1
1
Received nack credit for flit 121775
Requeued flit 121775
10
Received nack credit for flit 183834
Requeued flit 183834
Received nack credit for flit 110781
Requeued flit 110781
Received nack credit for flit 137294
Requeued flit 137294
2
Received nack credit for flit 136389
Requeued flit 136389
4
3
Received nack credit for flit 76102
Requeued flit 76102
Received nack credit for flit 123667
Requeued flit 123667
2
1
7
4
Received nack credit for flit 103337
Requeued flit 103337
Received nack credit for flit 75382
Requeued flit 75382
Received nack credit for flit 176598
Requeued flit 176598
Received nack credit for flit 176677
Requeued flit 176677
2
1
Received nack credit for flit 171556
Requeued flit 171556
Received nack credit for flit 185018
Requeued flit 185018
2
Received nack credit for flit 175173
Requeued flit 175173
5
5
Received nack credit for flit 190631
Requeued flit 190631
Received nack credit for flit 112310
Requeued flit 112310
1
10
Received nack credit for flit 175948
Requeued flit 175948
3
Received nack credit for flit 86886
Requeued flit 86886
Received nack credit for flit 73560
Requeued flit 73560
4
Received nack credit for flit 144680
Requeued flit 144680
1
1
Received nack credit for flit 193842
Requeued flit 193842
3
Received nack credit for flit 187701
Requeued flit 187701
Received nack credit for flit 103056
Requeued flit 103056
1
2
5
Received nack credit for flit 159306
Requeued flit 159306
Received nack credit for flit 175095
Requeued flit 175095
3
Received nack credit for flit 185986
Requeued flit 185986
1
Received nack credit for flit 145033
Requeued flit 145033
1
Received nack credit for flit 141940
Requeued flit 141940
Received nack credit for flit 191103
Requeued flit 191103
1
1
Received nack credit for flit 177135
Requeued flit 177135
4
1
Received nack credit for flit 188493
Requeued flit 188493
6
1
Received nack credit for flit 187606
Requeued flit 187606
Received nack credit for flit 103623
Requeued flit 103623
1
Received nack credit for flit 78104
Requeued flit 78104
Received nack credit for flit 179020
Requeued flit 179020
Received nack credit for flit 190186
Requeued flit 190186
2
Received nack credit for flit 179824
Requeued flit 179824
1
1
Received nack credit for flit 187941
Requeued flit 187941
Received nack credit for flit 192830
Requeued flit 192830
4
1
Received nack credit for flit 86928
Requeued flit 86928
4
Received nack credit for flit 181100
Requeued flit 181100
Received nack credit for flit 180292
Requeued flit 180292
6
Received nack credit for flit 175437
Requeued flit 175437
1
Received nack credit for flit 179720
Requeued flit 179720
3
Received nack credit for flit 86017
Requeued flit 86017
2
8
7
Received nack credit for flit 130505
Requeued flit 130505
Received nack credit for flit 180330
Requeued flit 180330
2
Received nack credit for flit 79822
Requeued flit 79822
Received nack credit for flit 180298
Requeued flit 180298
1
1
Received nack credit for flit 186139
Requeued flit 186139
Received nack credit for flit 191738
Requeued flit 191738
3
2
Received nack credit for flit 114223
Requeued flit 114223
Received nack credit for flit 127972
Requeued flit 127972
2
Received nack credit for flit 156656
Requeued flit 156656
4
Received nack credit for flit 85368
Requeued flit 85368
1
Received nack credit for flit 156969
Requeued flit 156969
6
Received nack credit for flit 178852
Requeued flit 178852
1
Received nack credit for flit 186914
Requeued flit 186914
1
3
Received nack credit for flit 159697
Requeued flit 159697
Received nack credit for flit 193266
Requeued flit 193266
1
3
Received nack credit for flit 158747
Requeued flit 158747
1
Received nack credit for flit 180605
Requeued flit 180605
Received nack credit for flit 190020
Requeued flit 190020
1
1
8
Received nack credit for flit 189027
Requeued flit 189027
2
Received nack credit for flit 186643
Requeued flit 186643
Received nack credit for flit 73105
Requeued flit 73105
Received nack credit for flit 197772
Requeued flit 197772
6
5
Received nack credit for flit 81198
Requeued flit 81198
2
Received nack credit for flit 189756
Requeued flit 189756
Received nack credit for flit 194325
Requeued flit 194325
2
1
2
Received nack credit for flit 186913
Requeued flit 186913
Received nack credit for flit 158458
Requeued flit 158458
Received nack credit for flit 180891
Requeued flit 180891
9
3
Received nack credit for flit 75633
Requeued flit 75633
1
1
Received nack credit for flit 181832
Requeued flit 181832
3
Received nack credit for flit 187639
Requeued flit 187639
Received nack credit for flit 195268
Requeued flit 195268
Received nack credit for flit 158241
Requeued flit 158241
1
Received nack credit for flit 159457
Requeued flit 159457
2
4
Received nack credit for flit 150473
Requeued flit 150473
Received nack credit for flit 134822
Requeued flit 134822
1
1
4
Received nack credit for flit 187917
Requeued flit 187917
2
2
Received nack credit for flit 162193
Requeued flit 162193
Received nack credit for flit 142691
Requeued flit 142691
Received nack credit for flit 164163
Requeued flit 164163
5
Received nack credit for flit 180504
Requeued flit 180504
6
Received nack credit for flit 176366
Requeued flit 176366
1
3
Received nack credit for flit 173239
Requeued flit 173239
Received nack credit for flit 196757
Requeued flit 196757
Received nack credit for flit 195371
Requeued flit 195371
6
2
5
Received nack credit for flit 132276
Requeued flit 132276
Received nack credit for flit 185581
Requeued flit 185581
Received nack credit for flit 184388
Requeued flit 184388
2
5
4
Received nack credit for flit 111249
Requeued flit 111249
Received nack credit for flit 132938
Requeued flit 132938
Received nack credit for flit 183524
Requeued flit 183524
2
2
4
Received nack credit for flit 187848
Requeued flit 187848
Received nack credit for flit 196862
Requeued flit 196862
Received nack credit for flit 178343
Requeued flit 178343
1
Received nack credit for flit 187018
Requeued flit 187018
1
2
5
2
Received nack credit for flit 211299
Requeued flit 211299
Received nack credit for flit 184217
Requeued flit 184217
1
Received nack credit for flit 191456
Requeued flit 191456
4
Received nack credit for flit 134426
Requeued flit 134426
Received nack credit for flit 165012
Requeued flit 165012
Received nack credit for flit 184986
Requeued flit 184986
4
Received nack credit for flit 184812
Requeued flit 184812
8
2
Received nack credit for flit 159811
Requeued flit 159811
Received nack credit for flit 82086
Requeued flit 82086
1
4
Received nack credit for flit 201981
Requeued flit 201981
Received nack credit for flit 185729
Requeued flit 185729
6
5
Received nack credit for flit 181109
Requeued flit 181109
Received nack credit for flit 190355
Requeued flit 190355
5
3
Received nack credit for flit 201940
Requeued flit 201940
Received nack credit for flit 140986
Requeued flit 140986
7
2
Received nack credit for flit 133326
Requeued flit 133326
Received nack credit for flit 205504
Requeued flit 205504
3
2
1
Received nack credit for flit 136672
Requeued flit 136672
Received nack credit for flit 189420
Requeued flit 189420
10
Received nack credit for flit 166428
Requeued flit 166428
2
Received nack credit for flit 172949
Requeued flit 172949
Received nack credit for flit 148824
Requeued flit 148824
3
2
6
Received nack credit for flit 169504
Requeued flit 169504
1
2
Received nack credit for flit 116001
Requeued flit 116001
Received nack credit for flit 193430
Requeued flit 193430
Received nack credit for flit 189670
Requeued flit 189670
1
Received nack credit for flit 80510
Requeued flit 80510
Received nack credit for flit 203979
Requeued flit 203979
3
Received nack credit for flit 200584
Requeued flit 200584
7
Received nack credit for flit 82702
Requeued flit 82702
2
8
Received nack credit for flit 150328
Requeued flit 150328
4
Received nack credit for flit 83888
Requeued flit 83888
Received nack credit for flit 190497
Requeued flit 190497
1
Received nack credit for flit 203235
Requeued flit 203235
6
3
5
Received nack credit for flit 142014
Requeued flit 142014
Received nack credit for flit 187758
Requeued flit 187758
Received nack credit for flit 99454
Requeued flit 99454
1
Received nack credit for flit 166405
Requeued flit 166405
1
6
3
Received nack credit for flit 172500
Requeued flit 172500
Received nack credit for flit 140688
Requeued flit 140688
Received nack credit for flit 119439
Requeued flit 119439
1
7
4
Received nack credit for flit 197971
Requeued flit 197971
Received nack credit for flit 139358
Requeued flit 139358
Received nack credit for flit 93760
Requeued flit 93760
5
3
2
2
Received nack credit for flit 189810
Requeued flit 189810
1
Received nack credit for flit 173502
Requeued flit 173502
Received nack credit for flit 134066
Requeued flit 134066
Received nack credit for flit 134514
Requeued flit 134514
Received nack credit for flit 201301
Requeued flit 201301
1
Received nack credit for flit 206518
Requeued flit 206518
4
2
5
Received nack credit for flit 86633
Requeued flit 86633
Received nack credit for flit 218061
Requeued flit 218061
Received nack credit for flit 208431
Requeued flit 208431
3
6
3
Received nack credit for flit 140173
Requeued flit 140173
Received nack credit for flit 199856
Requeued flit 199856
Received nack credit for flit 210790
Requeued flit 210790
2
Received nack credit for flit 157206
Requeued flit 157206
1
Received nack credit for flit 222762
Requeued flit 222762
8
Received nack credit for flit 136408
Requeued flit 136408
1
1
1
Received nack credit for flit 208771
Requeued flit 208771
Received nack credit for flit 174682
Requeued flit 174682
Received nack credit for flit 169264
Requeued flit 169264
3
1
2
Received nack credit for flit 197554
Requeued flit 197554
3
3
Received nack credit for flit 203447
Requeued flit 203447
1
Received nack credit for flit 135947
Requeued flit 135947
Received nack credit for flit 99886
Requeued flit 99886
Received nack credit for flit 190618
Requeued flit 190618
Received nack credit for flit 207409
Requeued flit 207409
3
2
Received nack credit for flit 195577
Requeued flit 195577
Received nack credit for flit 208075
Requeued flit 208075
4
Received nack credit for flit 149757
Requeued flit 149757
5
Received nack credit for flit 194909
Requeued flit 194909
7
8
5
Received nack credit for flit 85327
Requeued flit 85327
Received nack credit for flit 89430
Requeued flit 89430
Received nack credit for flit 202358
Requeued flit 202358
3
3
Received nack credit for flit 121175
Requeued flit 121175
Received nack credit for flit 113584
Requeued flit 113584
1
1
Received nack credit for flit 206537
Requeued flit 206537
Received nack credit for flit 169657
Requeued flit 169657
1
1
Received nack credit for flit 211312
Requeued flit 211312
Received nack credit for flit 169900
Requeued flit 169900
5
7
5
Received nack credit for flit 205454
Requeued flit 205454
3
Received nack credit for flit 168895
Requeued flit 168895
Received nack credit for flit 212087
Requeued flit 212087
Received nack credit for flit 163302
Requeued flit 163302
3
Received nack credit for flit 198257
Requeued flit 198257
3
11
Received nack credit for flit 179424
Requeued flit 179424
1
Received nack credit for flit 79487
Requeued flit 79487
7
3
2
3
Received nack credit for flit 190063
Requeued flit 190063
Received nack credit for flit 149464
Requeued flit 149464
Received nack credit for flit 136730
Requeued flit 136730
4
Received nack credit for flit 176042
Requeued flit 176042
Received nack credit for flit 162914
Requeued flit 162914
5
6
1
6
1
4
1
2
Received nack credit for flit 197889
Requeued flit 197889
Received nack credit for flit 217866
Requeued flit 217866
Received nack credit for flit 210632
Requeued flit 210632
Received nack credit for flit 150470
Requeued flit 150470
3
Received nack credit for flit 211690
Requeued flit 211690
Received nack credit for flit 213468
Requeued flit 213468
Received nack credit for flit 182220
Requeued flit 182220
1
Received nack credit for flit 97910
Requeued flit 97910
2
Received nack credit for flit 216587
Requeued flit 216587
2
Received nack credit for flit 129042
Requeued flit 129042
Received nack credit for flit 199880
Requeued flit 199880
1
Received nack credit for flit 210829
Requeued flit 210829
4
Received nack credit for flit 213881
Requeued flit 213881
1
1
1
Received nack credit for flit 206363
Requeued flit 206363
Received nack credit for flit 207719
Requeued flit 207719
1
1
Received nack credit for flit 215977
Requeued flit 215977
4
Received nack credit for flit 213475
Requeued flit 213475
Received nack credit for flit 214718
Requeued flit 214718
Received nack credit for flit 93398
Requeued flit 93398
2
2
1
2
Received nack credit for flit 139313
Requeued flit 139313
Received nack credit for flit 168220
Requeued flit 168220
Received nack credit for flit 139209
Requeued flit 139209
4
Received nack credit for flit 182960
Requeued flit 182960
7
5
Received nack credit for flit 97000
Requeued flit 97000
Received nack credit for flit 150091
Requeued flit 150091
2
2
Received nack credit for flit 94670
Requeued flit 94670
Received nack credit for flit 141085
Requeued flit 141085
Received nack credit for flit 184919
Requeued flit 184919
5
1
Received nack credit for flit 104886
Requeued flit 104886
Received nack credit for flit 215813
Requeued flit 215813
7
1
Received nack credit for flit 95158
Requeued flit 95158
Received nack credit for flit 179910
Requeued flit 179910
3
4
Received nack credit for flit 205617
Requeued flit 205617
Received nack credit for flit 109064
Requeued flit 109064
3
Received nack credit for flit 217659
Requeued flit 217659
1
Received nack credit for flit 221088
Requeued flit 221088
4
5
Received nack credit for flit 215881
Requeued flit 215881
Received nack credit for flit 200988
Requeued flit 200988
6
7
Received nack credit for flit 194134
Requeued flit 194134
Received nack credit for flit 202573
Requeued flit 202573
4
1
Received nack credit for flit 100385
Requeued flit 100385
2
Received nack credit for flit 186016
Requeued flit 186016
2
2
1
Received nack credit for flit 142560
Requeued flit 142560
2
Received nack credit for flit 147814
Requeued flit 147814
Received nack credit for flit 218219
Requeued flit 218219
Received nack credit for flit 126455
Requeued flit 126455
Received nack credit for flit 218799
Requeued flit 218799
2
4
8
5
Received nack credit for flit 211142
Requeued flit 211142
Received nack credit for flit 188908
Requeued flit 188908
1
Received nack credit for flit 103071
Requeued flit 103071
Received nack credit for flit 205511
Requeued flit 205511
Received nack credit for flit 220706
Requeued flit 220706
7
Received nack credit for flit 207931
Requeued flit 207931
1
9
5
Received nack credit for flit 189626
Requeued flit 189626
Received nack credit for flit 93569
Requeued flit 93569
3
1
2
Received nack credit for flit 103793
Requeued flit 103793
Received nack credit for flit 218880
Requeued flit 218880
Received nack credit for flit 187321
Requeued flit 187321
2
Received nack credit for flit 127182
Requeued flit 127182
Received nack credit for flit 219593
Requeued flit 219593
2
Received nack credit for flit 207948
Requeued flit 207948
1
Received nack credit for flit 218135
Requeued flit 218135
1
2
Received nack credit for flit 219576
Requeued flit 219576
Received nack credit for flit 216402
Requeued flit 216402
9
Received nack credit for flit 95425
Requeued flit 95425
1
4
1
Received nack credit for flit 219205
Requeued flit 219205
Received nack credit for flit 216340
Requeued flit 216340
Received nack credit for flit 190314
Requeued flit 190314
3
4
Received nack credit for flit 113089
Requeued flit 113089
Received nack credit for flit 213599
Requeued flit 213599
2
Received nack credit for flit 208814
Requeued flit 208814
2
1
Received nack credit for flit 148194
Requeued flit 148194
Received nack credit for flit 222652
Requeued flit 222652
2
4
Received nack credit for flit 207495
Requeued flit 207495
Received nack credit for flit 212643
Requeued flit 212643
4
7
5
1
Received nack credit for flit 157624
Requeued flit 157624
3
Received nack credit for flit 185051
Requeued flit 185051
Received nack credit for flit 173380
Requeued flit 173380
Received nack credit for flit 222388
Requeued flit 222388
Received nack credit for flit 222559
Requeued flit 222559
1
Received nack credit for flit 227826
Requeued flit 227826
1
Received nack credit for flit 228082
Requeued flit 228082
2
Received nack credit for flit 215316
Requeued flit 215316
2
5
Received nack credit for flit 211680
Requeued flit 211680
Received nack credit for flit 99862
Requeued flit 99862
3
5
4
Received nack credit for flit 163163
Requeued flit 163163
Received nack credit for flit 162481
Requeued flit 162481
Received nack credit for flit 207669
Requeued flit 207669
7
5
Received nack credit for flit 157065
Requeued flit 157065
Received nack credit for flit 220861
Requeued flit 220861
1
3
1
Received nack credit for flit 223593
Requeued flit 223593
1
Received nack credit for flit 130346
Requeued flit 130346
Received nack credit for flit 225979
Requeued flit 225979
Received nack credit for flit 227322
Requeued flit 227322
1
1
Received nack credit for flit 197314
Requeued flit 197314
Received nack credit for flit 227804
Requeued flit 227804
11
Received nack credit for flit 203781
Requeued flit 203781
1
Received nack credit for flit 229920
Requeued flit 229920
1
Received nack credit for flit 183907
Requeued flit 183907
3
10
9
Received nack credit for flit 210770
Requeued flit 210770
3
Received nack credit for flit 89535
Requeued flit 89535
Received nack credit for flit 205685
Requeued flit 205685
Received nack credit for flit 131802
Requeued flit 131802
6
Received nack credit for flit 101055
Requeued flit 101055
3
1
Received nack credit for flit 111265
Requeued flit 111265
Received nack credit for flit 225076
Requeued flit 225076
5
Received nack credit for flit 171263
Requeued flit 171263
1
Received nack credit for flit 197899
Requeued flit 197899
5
2
3
Received nack credit for flit 99399
Requeued flit 99399
2
Received nack credit for flit 215875
Requeued flit 215875
7
Received nack credit for flit 127187
Requeued flit 127187
Received nack credit for flit 148710
Requeued flit 148710
Received nack credit for flit 147119
Requeued flit 147119
3
Received nack credit for flit 201430
Requeued flit 201430
2
Received nack credit for flit 229475
Requeued flit 229475
1
3
3
Received nack credit for flit 189770
Requeued flit 189770
3
Received nack credit for flit 226291
Requeued flit 226291
Received nack credit for flit 227262
Requeued flit 227262
Received nack credit for flit 167079
Requeued flit 167079
6
10
6
Received nack credit for flit 100551
Requeued flit 100551
Received nack credit for flit 93567
Requeued flit 93567
4
Received nack credit for flit 227570
Requeued flit 227570
Received nack credit for flit 193240
Requeued flit 193240
1
3
10
Received nack credit for flit 231935
Requeued flit 231935
Received nack credit for flit 201177
Requeued flit 201177
Received nack credit for flit 102447
Requeued flit 102447
3
1
Received nack credit for flit 150185
Requeued flit 150185
2
5
Received nack credit for flit 229936
Requeued flit 229936
Received nack credit for flit 186897
Requeued flit 186897
Received nack credit for flit 216378
Requeued flit 216378
4
Received nack credit for flit 227313
Requeued flit 227313
4
8
Received nack credit for flit 95777
Requeued flit 95777
Received nack credit for flit 171721
Requeued flit 171721
1
1
Received nack credit for flit 232857
Requeued flit 232857
2
Received nack credit for flit 231742
Requeued flit 231742
Received nack credit for flit 217541
Requeued flit 217541
1
Received nack credit for flit 234325
Requeued flit 234325
2
Received nack credit for flit 150264
Requeued flit 150264
2
Received nack credit for flit 146276
Requeued flit 146276
2
Received nack credit for flit 221201
Requeued flit 221201
3
Received nack credit for flit 191070
Requeued flit 191070
4
9
Received nack credit for flit 170177
Requeued flit 170177
7
Received nack credit for flit 169716
Requeued flit 169716
Received nack credit for flit 166121
Requeued flit 166121
1
Received nack credit for flit 201558
Requeued flit 201558
5
Received nack credit for flit 233239
Requeued flit 233239
4
1
Received nack credit for flit 177481
Requeued flit 177481
6
Received nack credit for flit 207987
Requeued flit 207987
Received nack credit for flit 213957
Requeued flit 213957
2
Received nack credit for flit 223745
Requeued flit 223745
2
1
Received nack credit for flit 194122
Requeued flit 194122
3
Received nack credit for flit 236080
Requeued flit 236080
Received nack credit for flit 113081
Requeued flit 113081
5
10
2
Received nack credit for flit 183545
Requeued flit 183545
10
Received nack credit for flit 220137
Requeued flit 220137
Received nack credit for flit 111280
Requeued flit 111280
1
Received nack credit for flit 165271
Requeued flit 165271
4
Received nack credit for flit 240175
Requeued flit 240175
Received nack credit for flit 109401
Requeued flit 109401
5
2
Received nack credit for flit 236513
Requeued flit 236513
6
Received nack credit for flit 225146
Requeued flit 225146
3
Received nack credit for flit 105318
Requeued flit 105318
3
Received nack credit for flit 242009
Requeued flit 242009
5
Received nack credit for flit 197880
Requeued flit 197880
Received nack credit for flit 203285
Requeued flit 203285
1
Received nack credit for flit 238266
Requeued flit 238266
7
Received nack credit for flit 224433
Requeued flit 224433
4
2
Received nack credit for flit 116996
Requeued flit 116996
Received nack credit for flit 242837
Requeued flit 242837
8
2
Received nack credit for flit 103486
Requeued flit 103486
4
Received nack credit for flit 239451
Requeued flit 239451
7
Received nack credit for flit 181469
Requeued flit 181469
5
Received nack credit for flit 105614
Requeued flit 105614
5
Received nack credit for flit 114184
Requeued flit 114184
Received nack credit for flit 238320
Requeued flit 238320
5
Received nack credit for flit 225714
Requeued flit 225714
2
Received nack credit for flit 226570
Requeued flit 226570
3
3
1
6
Received nack credit for flit 134921
Requeued flit 134921
Received nack credit for flit 245083
Requeued flit 245083
Received nack credit for flit 115623
Requeued flit 115623
Received nack credit for flit 223659
Requeued flit 223659
3
Received nack credit for flit 121633
Requeued flit 121633
1
3
7
Received nack credit for flit 253402
Requeued flit 253402
Received nack credit for flit 182210
Requeued flit 182210
Received nack credit for flit 229112
Requeued flit 229112
3
Received nack credit for flit 116997
Requeued flit 116997
4
4
5
Received nack credit for flit 182198
Requeued flit 182198
Received nack credit for flit 121037
Requeued flit 121037
Received nack credit for flit 228906
Requeued flit 228906
7
Received nack credit for flit 234529
Requeued flit 234529
4
2
12
1
6
Received nack credit for flit 241318
Requeued flit 241318
Received nack credit for flit 197275
Requeued flit 197275
Received nack credit for flit 103431
Requeued flit 103431
Received nack credit for flit 245222
Requeued flit 245222
Received nack credit for flit 111737
Requeued flit 111737
3
1
Received nack credit for flit 252583
Requeued flit 252583
1
Received nack credit for flit 243629
Requeued flit 243629
Received nack credit for flit 248889
Requeued flit 248889
2
3
7
6
Received nack credit for flit 156633
Requeued flit 156633
2
1
Received nack credit for flit 244189
Requeued flit 244189
Received nack credit for flit 218989
Requeued flit 218989
5
Received nack credit for flit 226373
Requeued flit 226373
Received nack credit for flit 228730
Requeued flit 228730
Received nack credit for flit 243064
Requeued flit 243064
Received nack credit for flit 232103
Requeued flit 232103
1
1
2
1
Received nack credit for flit 211661
Requeued flit 211661
Received nack credit for flit 249337
Requeued flit 249337
Received nack credit for flit 203813
Requeued flit 203813
Received nack credit for flit 247050
Requeued flit 247050
4
4
2
Received nack credit for flit 251486
Requeued flit 251486
2
3
Received nack credit for flit 208580
Requeued flit 208580
Received nack credit for flit 245604
Requeued flit 245604
Received nack credit for flit 242331
Requeued flit 242331
Received nack credit for flit 177604
Requeued flit 177604
1
2
Received nack credit for flit 247431
Requeued flit 247431
Received nack credit for flit 179513
Requeued flit 179513
6
3
Received nack credit for flit 189089
Requeued flit 189089
1
Received nack credit for flit 207626
Requeued flit 207626
Received nack credit for flit 245296
Requeued flit 245296
1
Received nack credit for flit 256245
Requeued flit 256245
5
1
Received nack credit for flit 183606
Requeued flit 183606
1
Received nack credit for flit 226252
Requeued flit 226252
Received nack credit for flit 257288
Requeued flit 257288
1
Received nack credit for flit 250438
Requeued flit 250438
4
3
Received nack credit for flit 139541
Requeued flit 139541
Received nack credit for flit 234389
Requeued flit 234389
1
3
1
Received nack credit for flit 243278
Requeued flit 243278
Received nack credit for flit 244531
Requeued flit 244531
Received nack credit for flit 220577
Requeued flit 220577
1
[...]
Requeued flit 310672
Received nack credit for flit 279809
Requeued flit 279809
Received nack credit for flit 294044
Requeued flit 294044
Received nack credit for flit 293026
Requeued flit 293026
Received nack credit for flit 225159
Requeued flit 225159
4
9
8
Received nack credit for flit 262960
Requeued flit 262960
Received nack credit for flit 252631
Requeued flit 252631
Received nack credit for flit 207546
Requeued flit 207546
2
Received nack credit for flit 264090
Requeued flit 264090
1
Received nack credit for flit 295684
Requeued flit 295684
4
5
Received nack credit for flit 293163
Requeued flit 293163
Received nack credit for flit 308384
Requeued flit 308384
2
2
1
4
8
Received nack credit for flit 261425
Requeued flit 261425
Received nack credit for flit 319532
Requeued flit 319532
Received nack credit for flit 143622
Requeued flit 143622
Received nack credit for flit 309235
Requeued flit 309235
Received nack credit for flit 293047
Requeued flit 293047
4
Received nack credit for flit 234575
Requeued flit 234575
4
9
4
Received nack credit for flit 162249
Requeued flit 162249
Received nack credit for flit 187070
Requeued flit 187070
1
Received nack credit for flit 198752
Requeued flit 198752
Received nack credit for flit 319301
Requeued flit 319301
5
3
Received nack credit for flit 291858
Requeued flit 291858
Received nack credit for flit 321055
Requeued flit 321055
1
4
Received nack credit for flit 319974
Requeued flit 319974
3
2
1
1
Received nack credit for flit 294844
Requeued flit 294844
Received nack credit for flit 321420
Requeued flit 321420
3
Received nack credit for flit 296579
Requeued flit 296579
2
Received nack credit for flit 304052
Requeued flit 304052
3
Received nack credit for flit 311400
Requeued flit 311400
2
Received nack credit for flit 291705
Requeued flit 291705
7
Received nack credit for flit 322938
Requeued flit 322938
Received nack credit for flit 224537
Requeued flit 224537
Received nack credit for flit 263774
Requeued flit 263774
Received nack credit for flit 294578
Requeued flit 294578
6
3
5
Received nack credit for flit 297809
Requeued flit 297809
Received nack credit for flit 264508
Requeued flit 264508
Received nack credit for flit 232670
Requeued flit 232670
5
3
Received nack credit for flit 270526
Requeued flit 270526
Received nack credit for flit 201047
Requeued flit 201047
6
4
Received nack credit for flit 196021
Requeued flit 196021
1
Received nack credit for flit 296289
Requeued flit 296289
Received nack credit for flit 302298
Requeued flit 302298
3
1
10
Received nack credit for flit 225891
Requeued flit 225891
3
Received nack credit for flit 315362
Requeued flit 315362
Received nack credit for flit 153278
Requeued flit 153278
7
Received nack credit for flit 295492
Requeued flit 295492
Received nack credit for flit 303507
Requeued flit 303507
2
6
Received nack credit for flit 330002
Requeued flit 330002
Received nack credit for flit 269218
Requeued flit 269218
4
3
2
2
Received nack credit for flit 272914
Requeued flit 272914
Received nack credit for flit 225961
Requeued flit 225961
Received nack credit for flit 241469
Requeued flit 241469
Received nack credit for flit 265496
Requeued flit 265496
3
Received nack credit for flit 314397
Requeued flit 314397
4
1
5
Received nack credit for flit 196571
Requeued flit 196571
6
Received nack credit for flit 324932
Requeued flit 324932
Received nack credit for flit 269913
Requeued flit 269913
Received nack credit for flit 153287
Requeued flit 153287
2
Received nack credit for flit 263598
Requeued flit 263598
1
Received nack credit for flit 321876
Requeued flit 321876
1
1
Received nack credit for flit 326768
Requeued flit 326768
2
Received nack credit for flit 314958
Requeued flit 314958
Received nack credit for flit 273293
Requeued flit 273293
2
1
Received nack credit for flit 301634
Requeued flit 301634
Received nack credit for flit 324966
Requeued flit 324966
1
1
2
Received nack credit for flit 307132
Requeued flit 307132
Received nack credit for flit 322681
Requeued flit 322681
Received nack credit for flit 326218
Requeued flit 326218
2
3
1
Received nack credit for flit 317904
Requeued flit 317904
Received nack credit for flit 199438
Requeued flit 199438
Received nack credit for flit 304939
Requeued flit 304939
1
4
5
Received nack credit for flit 304207
Requeued flit 304207
Received nack credit for flit 207527
Requeued flit 207527
Received nack credit for flit 200683
Requeued flit 200683
8
3
5
5
2
5
Received nack credit for flit 151911
Requeued flit 151911
Received nack credit for flit 192272
Requeued flit 192272
Received nack credit for flit 157900
Requeued flit 157900
Received nack credit for flit 333724
Requeued flit 333724
Received nack credit for flit 330489
Requeued flit 330489
4
2
Received nack credit for flit 304243
Requeued flit 304243
2
Received nack credit for flit 297346
Requeued flit 297346
Received nack credit for flit 318667
Requeued flit 318667
6
4
2
Received nack credit for flit 276461
Requeued flit 276461
1
Received nack credit for flit 305201
Requeued flit 305201
Received nack credit for flit 331716
Requeued flit 331716
2
Received nack credit for flit 331782
Requeued flit 331782
7
Received nack credit for flit 334458
Requeued flit 334458
8
6
4
Received nack credit for flit 328526
Requeued flit 328526
Received nack credit for flit 154699
Requeued flit 154699
Received nack credit for flit 312440
Requeued flit 312440
Received nack credit for flit 279225
Requeued flit 279225
1
4
7
Received nack credit for flit 321256
Requeued flit 321256
Received nack credit for flit 307301
Requeued flit 307301
1
Received nack credit for flit 305975
Requeued flit 305975
Received nack credit for flit 332175
Requeued flit 332175
4
5
1
4
Received nack credit for flit 281879
Requeued flit 281879
3
Received nack credit for flit 155325
Requeued flit 155325
Received nack credit for flit 333752
Requeued flit 333752
6
Received nack credit for flit 297428
Requeued flit 297428
Received nack credit for flit 305120
Requeued flit 305120
Received nack credit for flit 323603
Requeued flit 323603
5
Received nack credit for flit 321547
Requeued flit 321547
3
1
1
Received nack credit for flit 322797
Requeued flit 322797
4
Received nack credit for flit 322750
Requeued flit 322750
Received nack credit for flit 334678
Requeued flit 334678
2
Received nack credit for flit 322452
Requeued flit 322452
1
Received nack credit for flit 299511
Requeued flit 299511
Received nack credit for flit 336612
Requeued flit 336612
2
Received nack credit for flit 324266
Requeued flit 324266
1
3
1
6
Received nack credit for flit 333445
Requeued flit 333445
Received nack credit for flit 340444
Requeued flit 340444
Received nack credit for flit 151284
Requeued flit 151284
Received nack credit for flit 335886
Requeued flit 335886
3
Received nack credit for flit 233863
Requeued flit 233863
2
Received nack credit for flit 316678
Requeued flit 316678
3
Received nack credit for flit 218132
Requeued flit 218132
1
6
Received nack credit for flit 325544
Requeued flit 325544
1
1
Received nack credit for flit 216869
Requeued flit 216869
4
Received nack credit for flit 334226
Requeued flit 334226
Received nack credit for flit 334521
Requeued flit 334521
Received nack credit for flit 327604
Requeued flit 327604
1
5
1
3
Received nack credit for flit 309887
Requeued flit 309887
Received nack credit for flit 336235
Requeued flit 336235
Received nack credit for flit 308430
Requeued flit 308430
Received nack credit for flit 325825
Requeued flit 325825
1
Received nack credit for flit 335752
Requeued flit 335752
1
Received nack credit for flit 311987
Requeued flit 311987
4
Received nack credit for flit 326076
Requeued flit 326076
3
5
5
Received nack credit for flit 309788
Requeued flit 309788
Received nack credit for flit 256363
Requeued flit 256363
Received nack credit for flit 312049
Requeued flit 312049
4
4
Received nack credit for flit 312800
Requeued flit 312800
Received nack credit for flit 335254
Requeued flit 335254
6
5
1
Received nack credit for flit 318800
Requeued flit 318800
Received nack credit for flit 253921
Requeued flit 253921
Received nack credit for flit 318210
Requeued flit 318210
1
1
Received nack credit for flit 308356
Requeued flit 308356
8
1
Received nack credit for flit 342411
Requeued flit 342411
Received nack credit for flit 336690
Requeued flit 336690
Received nack credit for flit 311227
Requeued flit 311227
1
Received nack credit for flit 339093
Requeued flit 339093
1
Received nack credit for flit 329613
Requeued flit 329613
1
4
Received nack credit for flit 322707
Requeued flit 322707
Received nack credit for flit 330441
Requeued flit 330441
9
2
Received nack credit for flit 206669
Requeued flit 206669
Received nack credit for flit 331621
Requeued flit 331621
5
Received nack credit for flit 217667
Requeued flit 217667
1
1
Received nack credit for flit 314223
Requeued flit 314223
1
Received nack credit for flit 335937
Requeued flit 335937
7
3
Received nack credit for flit 322292
Requeued flit 322292
Received nack credit for flit 314133
Requeued flit 314133
Received nack credit for flit 331028
Requeued flit 331028
1
2
4
Received nack credit for flit 265941
Requeued flit 265941
Received nack credit for flit 318391
Requeued flit 318391
Received nack credit for flit 235443
Requeued flit 235443
7
Received nack credit for flit 327898
Requeued flit 327898
1
6
Received nack credit for flit 332814
Requeued flit 332814
Received nack credit for flit 281371
Requeued flit 281371
1
2
8
Received nack credit for flit 280565
Requeued flit 280565
Received nack credit for flit 341302
Requeued flit 341302
Received nack credit for flit 280588
Requeued flit 280588
2
Received nack credit for flit 311265
Requeued flit 311265
5
Received nack credit for flit 162666
Requeued flit 162666
7
4
Received nack credit for flit 325637
Requeued flit 325637
Received nack credit for flit 315788
Requeued flit 315788
1
1
Received nack credit for flit 335375
Requeued flit 335375
Received nack credit for flit 340332
Requeued flit 340332
4
8
3
Received nack credit for flit 198259
Requeued flit 198259
Received nack credit for flit 157684
Requeued flit 157684
4
Received nack credit for flit 248091
Requeued flit 248091
Received nack credit for flit 330861
Requeued flit 330861
4
1
Received nack credit for flit 252639
Requeued flit 252639
1
Received nack credit for flit 346503
Requeued flit 346503
Received nack credit for flit 346616
Requeued flit 346616
3
1
7
Received nack credit for flit 335479
Requeued flit 335479
2
1
Received nack credit for flit 336955
Requeued flit 336955
Received nack credit for flit 305201
Requeued flit 305201
Received nack credit for flit 333143
Requeued flit 333143
Received nack credit for flit 347931
Requeued flit 347931
1
Received nack credit for flit 339703
Requeued flit 339703
7
8
Received nack credit for flit 230980
Requeued flit 230980
Received nack credit for flit 161640
Requeued flit 161640
1
3
Received nack credit for flit 324961
Requeued flit 324961
Received nack credit for flit 320502
Requeued flit 320502
4
Received nack credit for flit 231405
Requeued flit 231405
1
2
1
Received nack credit for flit 344280
Requeued flit 344280
Received nack credit for flit 319313
Requeued flit 319313
1
4
Received nack credit for flit 343946
Requeued flit 343946
Received nack credit for flit 266565
Requeued flit 266565
Received nack credit for flit 352410
Requeued flit 352410
4
5
Received nack credit for flit 228391
Requeued flit 228391
Received nack credit for flit 170577
Requeued flit 170577
2
Received nack credit for flit 272256
Requeued flit 272256
2
3
5
1
1
1
Received nack credit for flit 324314
Requeued flit 324314
Received nack credit for flit 158925
Requeued flit 158925
3
Received nack credit for flit 343071
Requeued flit 343071
Received nack credit for flit 352745
Requeued flit 352745
Received nack credit for flit 340083
Requeued flit 340083
1
3
Received nack credit for flit 321946
Requeued flit 321946
Received nack credit for flit 339332
Requeued flit 339332
1
Received nack credit for flit 325262
Requeued flit 325262
Received nack credit for flit 349084
Requeued flit 349084
1
6
4
3
1
Received nack credit for flit 342550
Requeued flit 342550
5
Received nack credit for flit 222505
Requeued flit 222505
Received nack credit for flit 298606
Requeued flit 298606
5
Received nack credit for flit 330132
Requeued flit 330132
1
Received nack credit for flit 339469
Requeued flit 339469
Received nack credit for flit 323535
Requeued flit 323535
1
9
Received nack credit for flit 166651
Requeued flit 166651
Received nack credit for flit 322046
Requeued flit 322046
Received nack credit for flit 328028
Requeued flit 328028
Received nack credit for flit 235855
Requeued flit 235855
5
7
Received nack credit for flit 339047
Requeued flit 339047
5
Received nack credit for flit 256924
Requeued flit 256924
Received nack credit for flit 189738
Requeued flit 189738
1
1
Received nack credit for flit 346825
Requeued flit 346825
Received nack credit for flit 342232
Requeued flit 342232
2
Received nack credit for flit 341609
Requeued flit 341609
7
8
Received nack credit for flit 296753
Requeued flit 296753
Received nack credit for flit 326771
Requeued flit 326771
7
Received nack credit for flit 235002
Requeued flit 235002
3
Received nack credit for flit 260547
Requeued flit 260547
3
Received nack credit for flit 244650
Requeued flit 244650
4
Received nack credit for flit 298244
Requeued flit 298244
1
5
2
Received nack credit for flit 348247
Requeued flit 348247
Received nack credit for flit 344661
Requeued flit 344661
Received nack credit for flit 343211
Requeued flit 343211
1
Received nack credit for flit 331798
Requeued flit 331798
2
Received nack credit for flit 346581
Requeued flit 346581
6
Received nack credit for flit 176284
Requeued flit 176284
3
Received nack credit for flit 346642
Requeued flit 346642
6
9
Received nack credit for flit 173340
Requeued flit 173340
Received nack credit for flit 184295
Requeued flit 184295
3
1
Received nack credit for flit 332301
Requeued flit 332301
Received nack credit for flit 347959
Requeued flit 347959
7
2
Received nack credit for flit 316358
Requeued flit 316358
Received nack credit for flit 325894
Requeued flit 325894
2
4
Received nack credit for flit 332351
Requeued flit 332351
4
Received nack credit for flit 331093
Requeued flit 331093
3
4
Received nack credit for flit 204520
Requeued flit 204520
1
Received nack credit for flit 346261
Requeued flit 346261
Received nack credit for flit 356559
Requeued flit 356559
Received nack credit for flit 363878
Requeued flit 363878
2
Received nack credit for flit 331483
Requeued flit 331483
7
5
Received nack credit for flit 250691
Requeued flit 250691
1
Received nack credit for flit 323841
Requeued flit 323841
4
Received nack credit for flit 334915
Requeued flit 334915
2
Received nack credit for flit 308020
Requeued flit 308020
Received nack credit for flit 301743
Requeued flit 301743
7
5
4
Received nack credit for flit 307055
Requeued flit 307055
Received nack credit for flit 356720
Requeued flit 356720
Received nack credit for flit 345072
Requeued flit 345072
2
7
Received nack credit for flit 275848
Requeued flit 275848
1
Received nack credit for flit 193562
Requeued flit 193562
Received nack credit for flit 355066
Requeued flit 355066
7
Received nack credit for flit 303228
Requeued flit 303228
7
1
Received nack credit for flit 204540
Requeued flit 204540
1
Received nack credit for flit 359322
Requeued flit 359322
2
Received nack credit for flit 357903
Requeued flit 357903
1
2
Received nack credit for flit 356247
Requeued flit 356247
Received nack credit for flit 360243
Requeued flit 360243
Received nack credit for flit 351054
Requeued flit 351054
3
1
Received nack credit for flit 332008
Requeued flit 332008
Received nack credit for flit 333748
Requeued flit 333748
1
Received nack credit for flit 358014
Requeued flit 358014
1
2
Received nack credit for flit 335350
Requeued flit 335350
5
Received nack credit for flit 362050
Requeued flit 362050
3
Received nack credit for flit 334785
Requeued flit 334785
2
Received nack credit for flit 351612
Requeued flit 351612
4
Received nack credit for flit 327671
Requeued flit 327671
5
Received nack credit for flit 280116
Requeued flit 280116
3
Received nack credit for flit 336696
Requeued flit 336696
9
3
Received nack credit for flit 306162
Requeued flit 306162
Received nack credit for flit 173494
Requeued flit 173494
Received nack credit for flit 352717
Requeued flit 352717
1
Received nack credit for flit 357629
Requeued flit 357629
3
7
1
Received nack credit for flit 350784
Requeued flit 350784
Received nack credit for flit 339649
Requeued flit 339649
4
1
Received nack credit for flit 368640
Requeued flit 368640
1
Received nack credit for flit 369252
Requeued flit 369252
Received nack credit for flit 354699
Requeued flit 354699
Received nack credit for flit 366479
Requeued flit 366479
3
Received nack credit for flit 339365
Requeued flit 339365
1
2
5
Received nack credit for flit 364105
Requeued flit 364105
6
Received nack credit for flit 353740
Requeued flit 353740
Received nack credit for flit 335633
Requeued flit 335633
Received nack credit for flit 361830
Requeued flit 361830
1
Received nack credit for flit 360990
Requeued flit 360990
2
1
Received nack credit for flit 331867
Requeued flit 331867
Received nack credit for flit 337762
Requeued flit 337762
3
1
Received nack credit for flit 339183
Requeued flit 339183
Received nack credit for flit 366007
Requeued flit 366007
2
4
Received nack credit for flit 354936
Requeued flit 354936
5
2
2
Received nack credit for flit 337378
Requeued flit 337378
Received nack credit for flit 366466
Requeued flit 366466
Received nack credit for flit 339768
Requeued flit 339768
Received nack credit for flit 365426
Requeued flit 365426
1
Received nack credit for flit 340902
Requeued flit 340902
4
1
6
2
Received nack credit for flit 258945
Requeued flit 258945
Received nack credit for flit 365728
Requeued flit 365728
Received nack credit for flit 313331
Requeued flit 313331
Received nack credit for flit 356754
Requeued flit 356754
1
1
Received nack credit for flit 367606
Requeued flit 367606
5
Received nack credit for flit 342934
Requeued flit 342934
3
Received nack credit for flit 195194
Requeued flit 195194
1
Received nack credit for flit 310838
Requeued flit 310838
3
Received nack credit for flit 364106
Requeued flit 364106
1
Received nack credit for flit 275640
Requeued flit 275640
Received nack credit for flit 340504
Requeued flit 340504
1
Received nack credit for flit 369536
Requeued flit 369536
2
5
1
Received nack credit for flit 342388
Requeued flit 342388
Received nack credit for flit 340442
Requeued flit 340442
Received nack credit for flit 343965
Requeued flit 343965
3
1
Received nack credit for flit 316719
Requeued flit 316719
Received nack credit for flit 341586
Requeued flit 341586
1
Received nack credit for flit 365218
Requeued flit 365218
Class 0:
Packet latency average = 2027.89
	minimum = 5
	maximum = 7290
Network latency average = 1619.23
	minimum = 5
	maximum = 7290
Slowest packet = 160418
Flit latency average = 1619.23
	minimum = 5
	maximum = 7290
Slowest flit = 160418
Fragmentation average = 0
	minimum = 0
	maximum = 0
Injected packet rate average = 0.618833
	minimum = 0.4151 (at node 49)
	maximum = 0.901 (at node 19)
Accepted packet rate average = 0.501133
	minimum = 0.4765 (at node 21)
	maximum = 0.5158 (at node 1)
Injected flit rate average = 0.618833
	minimum = 0.4151 (at node 49)
	maximum = 0.901 (at node 19)
Accepted flit rate average= 0.501133
	minimum = 0.4765 (at node 21)
	maximum = 0.5158 (at node 1)
Injected packet length average = 1
Accepted packet length average = 1
Total in-flight flits = 75366 (0 measured)
latency change    = 1
throughput change = 1
Average latency for class 0 exceeded 500 cycles. Aborting simulation.
Too many sample periods needed to converge
Simulation unstable, ending ...
Total run time 56.9511
