BEGIN Configuration File: examples/ecc_mesh88_config_1_0.600_packet_3
// $Id$

// Copyright (c) 2007-2015, Trustees of The Leland Stanford Junior University
// All rights reserved.
//
// Redistribution and use in source and binary forms, with or without
// modification, are permitted provided that the following conditions are met:
//
// Redistributions of source code must retain the above copyright notice, this
// list of conditions and the following disclaimer.
// Redistributions in binary form must reproduce the above copyright notice,
// this list of conditions and the following disclaimer in the documentation
// and/or other materials provided with the distribution.
//
// THIS SOFTWARE IS PROVIDED BY THE COPYRIGHT HOLDERS AND CONTRIBUTORS "AS IS"
// AND ANY EXPRESS OR IMPLIED WARRANTIES, INCLUDING, BUT NOT LIMITED TO, THE
// IMPLIED WARRANTIES OF MERCHANTABILITY AND FITNESS FOR A PARTICULAR PURPOSE
// ARE DISCLAIMED. IN NO EVENT SHALL THE COPYRIGHT OWNER OR CONTRIBUTORS BE
// LIABLE FOR ANY DIRECT, INDIRECT, INCIDENTAL, SPECIAL, EXEMPLARY, OR
// CONSEQUENTIAL DAMAGES (INCLUDING, BUT NOT LIMITED TO, PROCUREMENT OF
// SUBSTITUTE GOODS OR SERVICES; LOSS OF USE, DATA, OR PROFITS; OR BUSINESS
// INTERRUPTION) HOWEVER CAUSED AND ON ANY THEORY OF LIABILITY, WHETHER IN
// CONTRACT, STRICT LIABILITY, OR TORT (INCLUDING NEGLIGENCE OR OTHERWISE)
// ARISING IN ANY WAY OUT OF THE USE OF THIS SOFTWARE, EVEN IF ADVISED OF THE
// POSSIBILITY OF SUCH DAMAGE.

// Dragonfly
//




vc_buf_size = 256;


wait_for_tail_credit = 0;

//
// Router architecture
//
vc_allocator = separable_input_first; 
sw_allocator = separable_input_first;
alloc_iters  = 1;

credit_delay   = 2;
routing_delay  = 0;
vc_alloc_delay = 1;
sw_alloc_delay = 1;
st_final_delay = 1;

input_speedup     = 1;
output_speedup    = 1;
internal_speedup  = 2.0;


warmup_periods = 3;
sim_count          = 1;

sample_period  = 10000;  


routing_function = dor;
num_vcs     = 2;

priority = none;
traffic       = uniform; 

injection_rate = 0.6;
packet_size = 1;
injection_rate_uses_flits = 1;

topology = mesh;

k  = 8;
n  = 2;

fer = 3;
ecc = link;

watch_out=-;
//watch_file = watch.txt;

ecc = packet;

stats_out = examples/ecc_mesh88_config_1_0.600_packet_3.m;

END Configuration File: examples/ecc_mesh88_config_1_0.600_packet_3
Additional hops: 3
Set signal latency stall time: 6
Reenqueueing errored packet 168 at time 22
Additional hops: 8
Set signal latency stall time: 10
Additional hops: 12
Set signal latency stall time: 8
Additional hops: 16
Set signal latency stall time: 8
Additional hops: 23
Set signal latency stall time: 14
Reenqueueing errored packet 1186 at time 55
Reenqueueing errored packet 550 at time 57
Reenqueueing errored packet 1229 at time 58
Additional hops: 27
Set signal latency stall time: 8
Additional hops: 35
Set signal latency stall time: 16
Additional hops: 40
Set signal latency stall time: 10
Reenqueueing errored packet 843 at time 68
Additional hops: 49
Set signal latency stall time: 18
Reenqueueing errored packet 1059 at time 72
Additional hops: 53
Set signal latency stall time: 8
Additional hops: 65
Set signal latency stall time: 24
Reenqueueing errored packet 1770 at time 77
Additional hops: 70
Set signal latency stall time: 10
Additional hops: 81
Set signal latency stall time: 22
Additional hops: 90
Set signal latency stall time: 18
Reenqueueing errored packet 1147 at time 80
Reenqueueing errored packet 2056 at time 83
Additional hops: 96
Set signal latency stall time: 12
Additional hops: 100
Set signal latency stall time: 8
Reenqueueing errored packet 1425 at time 88
Reenqueueing errored packet 2081 at time 89
Reenqueueing errored packet 2673 at time 94
Reenqueueing errored packet 2417 at time 97
Reenqueueing errored packet 1114 at time 98
Reenqueueing errored packet 823 at time 99
Reenqueueing errored packet 1135 at time 101
Additional hops: 109
Set signal latency stall time: 18
Additional hops: 112
Set signal latency stall time: 6
Additional hops: 115
Set signal latency stall time: 6
Reenqueueing errored packet 3590 at time 119
Additional hops: 122
Set signal latency stall time: 14
Reenqueueing errored packet 4040 at time 122
Additional hops: 130
Set signal latency stall time: 16
Reenqueueing errored packet 2442 at time 131
Reenqueueing errored packet 2898 at time 135
Additional hops: 139
Set signal latency stall time: 18
Reenqueueing errored packet 3438 at time 142
Additional hops: 146
Set signal latency stall time: 14
Additional hops: 151
Set signal latency stall time: 10
Reenqueueing errored packet 2988 at time 154
Additional hops: 156
Set signal latency stall time: 10
Additional hops: 161
Set signal latency stall time: 10
Reenqueueing errored packet 4438 at time 163
Reenqueueing errored packet 4531 at time 164
Additional hops: 167
Set signal latency stall time: 12
Reenqueueing errored packet 4847 at time 168
Additional hops: 176
Set signal latency stall time: 18
Reenqueueing errored packet 5560 at time 172
Reenqueueing errored packet 4386 at time 180
Additional hops: 182
Set signal latency stall time: 12
Additional hops: 186
Set signal latency stall time: 8
Additional hops: 191
Set signal latency stall time: 10
Reenqueueing errored packet 4252 at time 190
Additional hops: 197
Set signal latency stall time: 12
Reenqueueing errored packet 4790 at time 193
Reenqueueing errored packet 6619 at time 194
Additional hops: 208
Set signal latency stall time: 22
Reenqueueing errored packet 6270 at time 198
Additional hops: 215
Set signal latency stall time: 14
Reenqueueing errored packet 5559 at time 205
Additional hops: 223
Set signal latency stall time: 16
Additional hops: 231
Set signal latency stall time: 16
Reenqueueing errored packet 5266 at time 217
Reenqueueing errored packet 4469 at time 217
Additional hops: 241
Set signal latency stall time: 20
Additional hops: 246
Set signal latency stall time: 10
Reenqueueing errored packet 5309 at time 225
Reenqueueing errored packet 5729 at time 231
Additional hops: 254
Set signal latency stall time: 16
Reenqueueing errored packet 7424 at time 235
Additional hops: 262
Set signal latency stall time: 16
Additional hops: 268
Set signal latency stall time: 12
Additional hops: 276
Set signal latency stall time: 16
Reenqueueing errored packet 4132 at time 242
Reenqueueing errored packet 6870 at time 251
Reenqueueing errored packet 7905 at time 252
Reenqueueing errored packet 7414 at time 254
Reenqueueing errored packet 5387 at time 258
Additional hops: 284
Set signal latency stall time: 16
Additional hops: 289
Set signal latency stall time: 10
Additional hops: 292
Set signal latency stall time: 6
Additional hops: 305
Set signal latency stall time: 26
Additional hops: 310
Set signal latency stall time: 10
Additional hops: 317
Set signal latency stall time: 14
Reenqueueing errored packet 9735 at time 272
Reenqueueing errored packet 9150 at time 275
Additional hops: 328
Set signal latency stall time: 22
Reenqueueing errored packet 7816 at time 278
Reenqueueing errored packet 8388 at time 280
Additional hops: 337
Set signal latency stall time: 18
Reenqueueing errored packet 8940 at time 283
Additional hops: 344
Set signal latency stall time: 14
Additional hops: 354
Set signal latency stall time: 20
Additional hops: 361
Set signal latency stall time: 14
Reenqueueing errored packet 6684 at time 294
Reenqueueing errored packet 7349 at time 298
Additional hops: 368
Set signal latency stall time: 14
Reenqueueing errored packet 8433 at time 300
Reenqueueing errored packet 6402 at time 300
Reenqueueing errored packet 7866 at time 302
Reenqueueing errored packet 7662 at time 307
Additional hops: 373
Set signal latency stall time: 10
Additional hops: 379
Set signal latency stall time: 12
Reenqueueing errored packet 9912 at time 313
Additional hops: 384
Set signal latency stall time: 10
Reenqueueing errored packet 8274 at time 318
Additional hops: 389
Set signal latency stall time: 10
Reenqueueing errored packet 10353 at time 322
Additional hops: 397
Set signal latency stall time: 16
Additional hops: 403
Set signal latency stall time: 12
Additional hops: 409
Set signal latency stall time: 12
Reenqueueing errored packet 8851 at time 328
Additional hops: 418
Set signal latency stall time: 18
Reenqueueing errored packet 8805 at time 330
Reenqueueing errored packet 10491 at time 336
Reenqueueing errored packet 9843 at time 340
Reenqueueing errored packet 9274 at time 340
Additional hops: 431
Set signal latency stall time: 26
Reenqueueing errored packet 8262 at time 348
Additional hops: 435
Set signal latency stall time: 8
Reenqueueing errored packet 12057 at time 357
Additional hops: 442
Set signal latency stall time: 14
Additional hops: 450
Set signal latency stall time: 16
Additional hops: 457
Set signal latency stall time: 14
Reenqueueing errored packet 7751 at time 369
Additional hops: 469
Set signal latency stall time: 24
Additional hops: 478
Set signal latency stall time: 18
Reenqueueing errored packet 12139 at time 377
Additional hops: 482
Set signal latency stall time: 8
Reenqueueing errored packet 9709 at time 383
Additional hops: 490
Set signal latency stall time: 16
Reenqueueing errored packet 10764 at time 385
Additional hops: 497
Set signal latency stall time: 14
Additional hops: 503
Set signal latency stall time: 12
Additional hops: 508
Set signal latency stall time: 10
Reenqueueing errored packet 14026 at time 391
Reenqueueing errored packet 11579 at time 391
Reenqueueing errored packet 7058 at time 397
Reenqueueing errored packet 14234 at time 398
Additional hops: 514
Set signal latency stall time: 12
Additional hops: 526
Set signal latency stall time: 24
Reenqueueing errored packet 12372 at time 400
Reenqueueing errored packet 12518 at time 401
Reenqueueing errored packet 10342 at time 401
Additional hops: 531
Set signal latency stall time: 10
Additional hops: 540
Set signal latency stall time: 18
Additional hops: 544
Set signal latency stall time: 8
Additional hops: 556
Set signal latency stall time: 24
Reenqueueing errored packet 10789 at time 411
Additional hops: 563
Set signal latency stall time: 14
Reenqueueing errored packet 13272 at time 415
Reenqueueing errored packet 14492 at time 416
Additional hops: 569
Set signal latency stall time: 12
Reenqueueing errored packet 9847 at time 423
Reenqueueing errored packet 10524 at time 423
Additional hops: 575
Set signal latency stall time: 12
Additional hops: 582
Set signal latency stall time: 14
Reenqueueing errored packet 11529 at time 426
Additional hops: 585
Set signal latency stall time: 6
Reenqueueing errored packet 12730 at time 432
Reenqueueing errored packet 9761 at time 432
Reenqueueing errored packet 10872 at time 436
Reenqueueing errored packet 16159 at time 438
Reenqueueing errored packet 14249 at time 439
Additional hops: 589
Set signal latency stall time: 8
Additional hops: 598
Set signal latency stall time: 18
Additional hops: 607
Set signal latency stall time: 18
Reenqueueing errored packet 14798 at time 458
Additional hops: 612
Set signal latency stall time: 10
Additional hops: 620
Set signal latency stall time: 16
Additional hops: 623
Set signal latency stall time: 6
Additional hops: 629
Set signal latency stall time: 12
Reenqueueing errored packet 14675 at time 470
Reenqueueing errored packet 15301 at time 470
Reenqueueing errored packet 17296 at time 472
Reenqueueing errored packet 12652 at time 472
Additional hops: 636
Set signal latency stall time: 14
Reenqueueing errored packet 13120 at time 477
Reenqueueing errored packet 17010 at time 481
Additional hops: 648
Set signal latency stall time: 24
Reenqueueing errored packet 15178 at time 490
Additional hops: 653
Set signal latency stall time: 10
Additional hops: 658
Set signal latency stall time: 10
Additional hops: 667
Set signal latency stall time: 18
Reenqueueing errored packet 12936 at time 509
Reenqueueing errored packet 16150 at time 510
Reenqueueing errored packet 15610 at time 512
Additional hops: 677
Set signal latency stall time: 20
Reenqueueing errored packet 13824 at time 526
Additional hops: 682
Set signal latency stall time: 10
Additional hops: 690
Set signal latency stall time: 16
Additional hops: 695
Set signal latency stall time: 10
Reenqueueing errored packet 15227 at time 535
Additional hops: 700
Set signal latency stall time: 10
Additional hops: 704
Set signal latency stall time: 8
Reenqueueing errored packet 16759 at time 539
Additional hops: 712
Set signal latency stall time: 16
Additional hops: 720
Set signal latency stall time: 16
Additional hops: 725
Set signal latency stall time: 10
Reenqueueing errored packet 18538 at time 544
Reenqueueing errored packet 16158 at time 545
Reenqueueing errored packet 14305 at time 545
Reenqueueing errored packet 17025 at time 546
Additional hops: 730
Set signal latency stall time: 10
Reenqueueing errored packet 19462 at time 552
Reenqueueing errored packet 17492 at time 556
Reenqueueing errored packet 12779 at time 557
Additional hops: 740
Set signal latency stall time: 20
Reenqueueing errored packet 19035 at time 561
Additional hops: 744
Set signal latency stall time: 8
Additional hops: 754
Set signal latency stall time: 20
Additional hops: 761
Set signal latency stall time: 14
Additional hops: 765
Set signal latency stall time: 8
Additional hops: 773
Set signal latency stall time: 16
Additional hops: 782
Set signal latency stall time: 18
Additional hops: 790
Set signal latency stall time: 16
Reenqueueing errored packet 14654 at time 572
Additional hops: 799
Set signal latency stall time: 18
Reenqueueing errored packet 18623 at time 575
Additional hops: 809
Set signal latency stall time: 20
Reenqueueing errored packet 15887 at time 579
Reenqueueing errored packet 14637 at time 579
Additional hops: 821
Set signal latency stall time: 24
Additional hops: 833
Set signal latency stall time: 24
Reenqueueing errored packet 16287 at time 584
Reenqueueing errored packet 16751 at time 585
Reenqueueing errored packet 18795 at time 586
Reenqueueing errored packet 16934 at time 588
Reenqueueing errored packet 17687 at time 592
Additional hops: 840
Set signal latency stall time: 14
Additional hops: 847
Set signal latency stall time: 14
Reenqueueing errored packet 15987 at time 598
Additional hops: 859
Set signal latency stall time: 24
Additional hops: 867
Set signal latency stall time: 16
Reenqueueing errored packet 15945 at time 607
Reenqueueing errored packet 14807 at time 608
Additional hops: 875
Set signal latency stall time: 16
Reenqueueing errored packet 20170 at time 610
Reenqueueing errored packet 16596 at time 611
Additional hops: 884
Set signal latency stall time: 18
Reenqueueing errored packet 17211 at time 621
Reenqueueing errored packet 15075 at time 623
Additional hops: 890
Set signal latency stall time: 12
Additional hops: 895
Set signal latency stall time: 10
Reenqueueing errored packet 16758 at time 626
Reenqueueing errored packet 16671 at time 633
Reenqueueing errored packet 20155 at time 635
Additional hops: 901
Set signal latency stall time: 12
Additional hops: 910
Set signal latency stall time: 18
Reenqueueing errored packet 18523 at time 637
Additional hops: 917
Set signal latency stall time: 14
Additional hops: 926
Set signal latency stall time: 18
Additional hops: 932
Set signal latency stall time: 12
Additional hops: 944
Set signal latency stall time: 24
Additional hops: 955
Set signal latency stall time: 22
Reenqueueing errored packet 23070 at time 648
Additional hops: 965
Set signal latency stall time: 20
Reenqueueing errored packet 20591 at time 652
Reenqueueing errored packet 16666 at time 653
Reenqueueing errored packet 18828 at time 655
Additional hops: 976
Set signal latency stall time: 22
Reenqueueing errored packet 19748 at time 658
Additional hops: 980
Set signal latency stall time: 8
Additional hops: 987
Set signal latency stall time: 14
Additional hops: 998
Set signal latency stall time: 22
Additional hops: 1007
Set signal latency stall time: 18
Additional hops: 1014
Set signal latency stall time: 14
Reenqueueing errored packet 21091 at time 668
Reenqueueing errored packet 14827 at time 669
Additional hops: 1021
Set signal latency stall time: 14
Reenqueueing errored packet 16321 at time 671
Additional hops: 1031
Set signal latency stall time: 20
Reenqueueing errored packet 20533 at time 672
Reenqueueing errored packet 20731 at time 674
Reenqueueing errored packet 19093 at time 680
Reenqueueing errored packet 17748 at time 681
Reenqueueing errored packet 17192 at time 681
Additional hops: 1038
Set signal latency stall time: 14
Reenqueueing errored packet 24490 at time 684
Reenqueueing errored packet 19528 at time 684
Additional hops: 1042
Set signal latency stall time: 8
Reenqueueing errored packet 19257 at time 692
Additional hops: 1052
Set signal latency stall time: 20
Reenqueueing errored packet 25908 at time 696
Reenqueueing errored packet 21987 at time 697
Additional hops: 1061
Set signal latency stall time: 18
Additional hops: 1065
Set signal latency stall time: 8
Additional hops: 1069
Set signal latency stall time: 8
Additional hops: 1076
Set signal latency stall time: 14
Additional hops: 1079
Set signal latency stall time: 6
Additional hops: 1088
Set signal latency stall time: 18
Reenqueueing errored packet 22543 at time 706
Reenqueueing errored packet 26235 at time 706
Reenqueueing errored packet 21446 at time 706
Additional hops: 1094
Set signal latency stall time: 12
Additional hops: 1101
Set signal latency stall time: 14
Reenqueueing errored packet 22402 at time 713
Additional hops: 1110
Set signal latency stall time: 18
Reenqueueing errored packet 17638 at time 716
Reenqueueing errored packet 18308 at time 716
Reenqueueing errored packet 24545 at time 719
Additional hops: 1120
Set signal latency stall time: 20
Additional hops: 1130
Set signal latency stall time: 20
Additional hops: 1133
Set signal latency stall time: 6
Reenqueueing errored packet 18119 at time 722
Reenqueueing errored packet 20178 at time 723
Reenqueueing errored packet 27247 at time 728
Additional hops: 1144
Set signal latency stall time: 22
Additional hops: 1162
Set signal latency stall time: 36
Reenqueueing errored packet 22257 at time 732
Additional hops: 1166
Set signal latency stall time: 8
Reenqueueing errored packet 18684 at time 740
Reenqueueing errored packet 21140 at time 740
Reenqueueing errored packet 23532 at time 746
Reenqueueing errored packet 20292 at time 751
Additional hops: 1175
Set signal latency stall time: 18
Additional hops: 1183
Set signal latency stall time: 16
Reenqueueing errored packet 13824 at time 768
Additional hops: 1194
Set signal latency stall time: 22
Additional hops: 1199
Set signal latency stall time: 10
Additional hops: 1211
Set signal latency stall time: 24
Reenqueueing errored packet 21593 at time 778
Reenqueueing errored packet 22972 at time 779
Additional hops: 1217
Set signal latency stall time: 12
Reenqueueing errored packet 27036 at time 783
Additional hops: 1225
Set signal latency stall time: 16
Additional hops: 1234
Set signal latency stall time: 18
Reenqueueing errored packet 19162 at time 793
Reenqueueing errored packet 26461 at time 795
Additional hops: 1237
Set signal latency stall time: 6
Reenqueueing errored packet 18994 at time 798
Reenqueueing errored packet 21192 at time 800
Additional hops: 1245
Set signal latency stall time: 16
Reenqueueing errored packet 30124 at time 802
Additional hops: 1251
Set signal latency stall time: 12
Additional hops: 1257
Set signal latency stall time: 12
Additional hops: 1265
Set signal latency stall time: 16
Reenqueueing errored packet 22743 at time 805
Additional hops: 1276
Set signal latency stall time: 22
Additional hops: 1284
Set signal latency stall time: 16
Additional hops: 1291
Set signal latency stall time: 14
Reenqueueing errored packet 28113 at time 815
Additional hops: 1301
Set signal latency stall time: 20
Reenqueueing errored packet 27314 at time 816
Reenqueueing errored packet 22639 at time 818
Reenqueueing errored packet 23797 at time 821
Additional hops: 1308
Set signal latency stall time: 14
Reenqueueing errored packet 25832 at time 828
Reenqueueing errored packet 26954 at time 829
Additional hops: 1314
Set signal latency stall time: 12
Reenqueueing errored packet 27095 at time 836
Reenqueueing errored packet 27589 at time 836
Additional hops: 1323
Set signal latency stall time: 18
Reenqueueing errored packet 24386 at time 843
Additional hops: 1329
Set signal latency stall time: 12
Additional hops: 1334
Set signal latency stall time: 10
Additional hops: 1344
Set signal latency stall time: 20
Additional hops: 1355
Set signal latency stall time: 22
Additional hops: 1363
Set signal latency stall time: 16
Reenqueueing errored packet 30189 at time 856
Reenqueueing errored packet 30516 at time 857
Additional hops: 1373
Set signal latency stall time: 20
Reenqueueing errored packet 26810 at time 861
Reenqueueing errored packet 28209 at time 865
Reenqueueing errored packet 25969 at time 868
Additional hops: 1380
Set signal latency stall time: 14
Reenqueueing errored packet 23798 at time 871
Additional hops: 1385
Set signal latency stall time: 10
Reenqueueing errored packet 23129 at time 878
Additional hops: 1387
Set signal latency stall time: 4
Additional hops: 1393
Set signal latency stall time: 12
Reenqueueing errored packet 33395 at time 883
Additional hops: 1402
Set signal latency stall time: 18
Additional hops: 1415
Set signal latency stall time: 26
Reenqueueing errored packet 27987 at time 885
Reenqueueing errored packet 26757 at time 885
Additional hops: 1425
Set signal latency stall time: 20
Additional hops: 1431
Set signal latency stall time: 12
Additional hops: 1438
Set signal latency stall time: 14
Reenqueueing errored packet 26064 at time 895
Additional hops: 1440
Set signal latency stall time: 4
Reenqueueing errored packet 26955 at time 899
Reenqueueing errored packet 33157 at time 901
Reenqueueing errored packet 28337 at time 902
Reenqueueing errored packet 28029 at time 902
Reenqueueing errored packet 26921 at time 907
Additional hops: 1448
Set signal latency stall time: 16
Additional hops: 1455
Set signal latency stall time: 14
Reenqueueing errored packet 24508 at time 911
Additional hops: 1457
Set signal latency stall time: 4
Additional hops: 1462
Set signal latency stall time: 10
Reenqueueing errored packet 29562 at time 923
Reenqueueing errored packet 24368 at time 924
Reenqueueing errored packet 27853 at time 925
Reenqueueing errored packet 32068 at time 933
Additional hops: 1466
Set signal latency stall time: 8
Additional hops: 1473
Set signal latency stall time: 14
Reenqueueing errored packet 35293 at time 950
Additional hops: 1475
Set signal latency stall time: 4
Additional hops: 1481
Set signal latency stall time: 12
Reenqueueing errored packet 36196 at time 960
Reenqueueing errored packet 26589 at time 960
Additional hops: 1492
Set signal latency stall time: 22
Additional hops: 1497
Set signal latency stall time: 10
Reenqueueing errored packet 33360 at time 971
Additional hops: 1506
Set signal latency stall time: 18
Additional hops: 1515
Set signal latency stall time: 18
Additional hops: 1527
Set signal latency stall time: 24
Reenqueueing errored packet 31356 at time 978
Additional hops: 1535
Set signal latency stall time: 16
Additional hops: 1542
Set signal latency stall time: 14
Additional hops: 1545
Set signal latency stall time: 6
Reenqueueing errored packet 31532 at time 985
Reenqueueing errored packet 37210 at time 988
Additional hops: 1550
Set signal latency stall time: 10
Additional hops: 1563
Set signal latency stall time: 26
Additional hops: 1572
Set signal latency stall time: 18
Reenqueueing errored packet 28942 at time 994
Reenqueueing errored packet 32308 at time 995
Reenqueueing errored packet 33189 at time 995
Additional hops: 1576
Set signal latency stall time: 8
Additional hops: 1587
Set signal latency stall time: 22
Reenqueueing errored packet 29910 at time 996
Reenqueueing errored packet 32872 at time 1002
Reenqueueing errored packet 29660 at time 1002
Reenqueueing errored packet 32674 at time 1004
Reenqueueing errored packet 23964 at time 1011
Reenqueueing errored packet 23567 at time 1018
Reenqueueing errored packet 23094 at time 1018
Additional hops: 1591
Set signal latency stall time: 8
Reenqueueing errored packet 30363 at time 1028
Additional hops: 1594
Set signal latency stall time: 6
Additional hops: 1603
Set signal latency stall time: 18
Additional hops: 1607
Set signal latency stall time: 8
Reenqueueing errored packet 39258 at time 1042
Reenqueueing errored packet 32233 at time 1046
Additional hops: 1617
Set signal latency stall time: 20
Reenqueueing errored packet 32133 at time 1054
Additional hops: 1622
Set signal latency stall time: 10
Additional hops: 1631
Set signal latency stall time: 18
Reenqueueing errored packet 33545 at time 1065
Reenqueueing errored packet 29704 at time 1067
Additional hops: 1639
Set signal latency stall time: 16
Additional hops: 1649
Set signal latency stall time: 20
Reenqueueing errored packet 27553 at time 1077
Reenqueueing errored packet 30015 at time 1084
Additional hops: 1660
Set signal latency stall time: 22
Reenqueueing errored packet 28501 at time 1096
Additional hops: 1668
Set signal latency stall time: 16
Additional hops: 1675
Set signal latency stall time: 14
Additional hops: 1680
Set signal latency stall time: 10
Reenqueueing errored packet 32882 at time 1108
Additional hops: 1685
Set signal latency stall time: 10
Reenqueueing errored packet 35607 at time 1112
Reenqueueing errored packet 35494 at time 1113
Additional hops: 1689
Set signal latency stall time: 8
Reenqueueing errored packet 41807 at time 1118
Reenqueueing errored packet 32483 at time 1120
Additional hops: 1698
Set signal latency stall time: 18
Additional hops: 1707
Set signal latency stall time: 18
Additional hops: 1719
Set signal latency stall time: 24
Reenqueueing errored packet 36142 at time 1126
Additional hops: 1723
Set signal latency stall time: 8
Additional hops: 1729
Set signal latency stall time: 12
Additional hops: 1733
Set signal latency stall time: 8
Reenqueueing errored packet 36955 at time 1137
Additional hops: 1742
Set signal latency stall time: 18
Reenqueueing errored packet 31205 at time 1140
Reenqueueing errored packet 29892 at time 1141
Reenqueueing errored packet 36824 at time 1142
Reenqueueing errored packet 37127 at time 1145
Additional hops: 1746
Set signal latency stall time: 8
Reenqueueing errored packet 29691 at time 1148
Additional hops: 1754
Set signal latency stall time: 16
Reenqueueing errored packet 43392 at time 1155
Reenqueueing errored packet 28243 at time 1157
Additional hops: 1764
Set signal latency stall time: 20
Additional hops: 1771
Set signal latency stall time: 14
Additional hops: 1783
Set signal latency stall time: 24
Reenqueueing errored packet 32063 at time 1169
Additional hops: 1788
Set signal latency stall time: 10
Additional hops: 1793
Set signal latency stall time: 10
Reenqueueing errored packet 36063 at time 1182
Additional hops: 1802
Set signal latency stall time: 18
Reenqueueing errored packet 32048 at time 1187
Reenqueueing errored packet 41356 at time 1188
Reenqueueing errored packet 44206 at time 1189
Reenqueueing errored packet 31242 at time 1193
Additional hops: 1805
Set signal latency stall time: 6
Reenqueueing errored packet 40486 at time 1201
Additional hops: 1811
Set signal latency stall time: 12
Additional hops: 1816
Set signal latency stall time: 10
Reenqueueing errored packet 38353 at time 1204
Additional hops: 1822
Set signal latency stall time: 12
Reenqueueing errored packet 42210 at time 1214
Additional hops: 1828
Set signal latency stall time: 12
Additional hops: 1840
Set signal latency stall time: 24
Reenqueueing errored packet 36627 at time 1216
Reenqueueing errored packet 43473 at time 1221
Additional hops: 1846
Set signal latency stall time: 12
Reenqueueing errored packet 34764 at time 1227
Additional hops: 1854
Set signal latency stall time: 16
Additional hops: 1863
Set signal latency stall time: 18
Additional hops: 1869
Set signal latency stall time: 12
Additional hops: 1878
Set signal latency stall time: 18
Reenqueueing errored packet 44698 at time 1237
Additional hops: 1885
Set signal latency stall time: 14
Reenqueueing errored packet 32572 at time 1240
Reenqueueing errored packet 40020 at time 1246
Reenqueueing errored packet 41420 at time 1248
Reenqueueing errored packet 36985 at time 1251
Reenqueueing errored packet 35748 at time 1253
Additional hops: 1889
Set signal latency stall time: 8
Additional hops: 1897
Set signal latency stall time: 16
Reenqueueing errored packet 42367 at time 1255
Additional hops: 1904
Set signal latency stall time: 14
Additional hops: 1909
Set signal latency stall time: 10
Additional hops: 1916
Set signal latency stall time: 14
Additional hops: 1926
Set signal latency stall time: 20
Reenqueueing errored packet 47633 at time 1263
Additional hops: 1932
Set signal latency stall time: 12
Reenqueueing errored packet 42890 at time 1268
Additional hops: 1936
Set signal latency stall time: 8
Reenqueueing errored packet 38355 at time 1270
Reenqueueing errored packet 35040 at time 1271
Reenqueueing errored packet 42435 at time 1274
Additional hops: 1944
Set signal latency stall time: 16
Additional hops: 1954
Set signal latency stall time: 20
Reenqueueing errored packet 38204 at time 1276
Reenqueueing errored packet 48224 at time 1277
Reenqueueing errored packet 33888 at time 1280
Additional hops: 1960
Set signal latency stall time: 12
Reenqueueing errored packet 44128 at time 1291
Additional hops: 1968
Set signal latency stall time: 16
Additional hops: 1974
Set signal latency stall time: 12
Reenqueueing errored packet 38963 at time 1295
Additional hops: 1981
Set signal latency stall time: 14
Reenqueueing errored packet 43031 at time 1300
Additional hops: 1988
Set signal latency stall time: 14
Reenqueueing errored packet 42491 at time 1307
Reenqueueing errored packet 42585 at time 1308
Reenqueueing errored packet 45991 at time 1313
Additional hops: 1992
Set signal latency stall time: 8
Additional hops: 2002
Set signal latency stall time: 20
Reenqueueing errored packet 45713 at time 1319
Additional hops: 2010
Set signal latency stall time: 16
Reenqueueing errored packet 44684 at time 1322
Additional hops: 2018
Set signal latency stall time: 16
Additional hops: 2026
Set signal latency stall time: 16
Additional hops: 2038
Set signal latency stall time: 24
Reenqueueing errored packet 38577 at time 1337
Reenqueueing errored packet 39499 at time 1338
Reenqueueing errored packet 36798 at time 1340
Additional hops: 2045
Set signal latency stall time: 14
Reenqueueing errored packet 38336 at time 1349
Additional hops: 2054
Set signal latency stall time: 18
Reenqueueing errored packet 38797 at time 1357
Additional hops: 2060
Set signal latency stall time: 12
Reenqueueing errored packet 36070 at time 1360
Additional hops: 2067
Set signal latency stall time: 14
Additional hops: 2071
Set signal latency stall time: 8
Additional hops: 2076
Set signal latency stall time: 10
Reenqueueing errored packet 48842 at time 1368
Additional hops: 2085
Set signal latency stall time: 18
Reenqueueing errored packet 48193 at time 1372
Reenqueueing errored packet 39539 at time 1372
Reenqueueing errored packet 50195 at time 1375
Additional hops: 2091
Set signal latency stall time: 12
Reenqueueing errored packet 39276 at time 1378
Additional hops: 2097
Set signal latency stall time: 12
Additional hops: 2103
Set signal latency stall time: 12
Additional hops: 2110
Set signal latency stall time: 14
Additional hops: 2117
Set signal latency stall time: 14
Reenqueueing errored packet 41946 at time 1389
Reenqueueing errored packet 46318 at time 1390
Additional hops: 2128
Set signal latency stall time: 22
Additional hops: 2135
Set signal latency stall time: 14
Reenqueueing errored packet 44143 at time 1393
Reenqueueing errored packet 46429 at time 1394
Additional hops: 2141
Set signal latency stall time: 12
Additional hops: 2151
Set signal latency stall time: 20
Additional hops: 2162
Set signal latency stall time: 22
Reenqueueing errored packet 46585 at time 1400
Reenqueueing errored packet 47455 at time 1402
Additional hops: 2176
Set signal latency stall time: 28
Additional hops: 2180
Set signal latency stall time: 8
Reenqueueing errored packet 40130 at time 1406
Additional hops: 2192
Set signal latency stall time: 24
Reenqueueing errored packet 43043 at time 1407
Additional hops: 2199
Set signal latency stall time: 14
Reenqueueing errored packet 36735 at time 1413
Reenqueueing errored packet 53294 at time 1414
Additional hops: 2205
Set signal latency stall time: 12
Reenqueueing errored packet 38945 at time 1418
Additional hops: 2211
Set signal latency stall time: 12
Reenqueueing errored packet 40248 at time 1421
Reenqueueing errored packet 44115 at time 1424
Additional hops: 2218
Set signal latency stall time: 14
Reenqueueing errored packet 44312 at time 1430
Additional hops: 2226
Set signal latency stall time: 16
Reenqueueing errored packet 40554 at time 1431
Additional hops: 2230
Set signal latency stall time: 8
Reenqueueing errored packet 44375 at time 1433
Reenqueueing errored packet 38311 at time 1433
Additional hops: 2236
Set signal latency stall time: 12
Additional hops: 2244
Set signal latency stall time: 16
Additional hops: 2250
Set signal latency stall time: 12
Reenqueueing errored packet 48468 at time 1441
Additional hops: 2254
Set signal latency stall time: 8
Reenqueueing errored packet 41772 at time 1443
Reenqueueing errored packet 40637 at time 1447
Additional hops: 2264
Set signal latency stall time: 20
Reenqueueing errored packet 44637 at time 1449
Reenqueueing errored packet 52293 at time 1451
Reenqueueing errored packet 42004 at time 1453
Additional hops: 2272
Set signal latency stall time: 16
Reenqueueing errored packet 37464 at time 1455
Additional hops: 2278
Set signal latency stall time: 12
Reenqueueing errored packet 42990 at time 1468
Reenqueueing errored packet 43410 at time 1471
Additional hops: 2283
Set signal latency stall time: 10
Additional hops: 2291
Set signal latency stall time: 16
Additional hops: 2298
Set signal latency stall time: 14
Additional hops: 2312
Set signal latency stall time: 28
Reenqueueing errored packet 48795 at time 1480
Reenqueueing errored packet 49255 at time 1482
Additional hops: 2318
Set signal latency stall time: 12
Additional hops: 2326
Set signal latency stall time: 16
Additional hops: 2328
Set signal latency stall time: 4
Additional hops: 2332
Set signal latency stall time: 8
Additional hops: 2339
Set signal latency stall time: 14
Reenqueueing errored packet 47056 at time 1489
Reenqueueing errored packet 51750 at time 1489
Additional hops: 2348
Set signal latency stall time: 18
Reenqueueing errored packet 56056 at time 1491
Reenqueueing errored packet 54604 at time 1495
Reenqueueing errored packet 49999 at time 1495
Additional hops: 2354
Set signal latency stall time: 12
Additional hops: 2364
Set signal latency stall time: 20
Reenqueueing errored packet 40348 at time 1499
Additional hops: 2372
Set signal latency stall time: 16
Reenqueueing errored packet 52394 at time 1503
Additional hops: 2380
Set signal latency stall time: 16
Additional hops: 2389
Set signal latency stall time: 18
Reenqueueing errored packet 39538 at time 1507
Additional hops: 2399
Set signal latency stall time: 20
Reenqueueing errored packet 51480 at time 1509
Reenqueueing errored packet 43180 at time 1509
Additional hops: 2404
Set signal latency stall time: 10
Additional hops: 2413
Set signal latency stall time: 18
Additional hops: 2422
Set signal latency stall time: 18
Reenqueueing errored packet 43349 at time 1517
Reenqueueing errored packet 42115 at time 1519
Reenqueueing errored packet 43660 at time 1520
Reenqueueing errored packet 57206 at time 1521
Additional hops: 2431
Set signal latency stall time: 18
Reenqueueing errored packet 49272 at time 1525
Additional hops: 2437
Set signal latency stall time: 12
Reenqueueing errored packet 53347 at time 1528
Reenqueueing errored packet 41249 at time 1532
Reenqueueing errored packet 42106 at time 1535
Reenqueueing errored packet 42785 at time 1538
Additional hops: 2445
Set signal latency stall time: 16
Additional hops: 2450
Set signal latency stall time: 10
Reenqueueing errored packet 44427 at time 1543
Additional hops: 2455
Set signal latency stall time: 10
Additional hops: 2465
Set signal latency stall time: 20
Reenqueueing errored packet 45420 at time 1553
Reenqueueing errored packet 49174 at time 1554
Reenqueueing errored packet 54315 at time 1555
Additional hops: 2474
Set signal latency stall time: 18
Additional hops: 2482
Set signal latency stall time: 16
Additional hops: 2490
Set signal latency stall time: 16
Additional hops: 2495
Set signal latency stall time: 10
Reenqueueing errored packet 43445 at time 1573
Additional hops: 2498
Set signal latency stall time: 6
Reenqueueing errored packet 44790 at time 1575
Additional hops: 2505
Set signal latency stall time: 14
Reenqueueing errored packet 52072 at time 1576
Additional hops: 2510
Set signal latency stall time: 10
Additional hops: 2523
Set signal latency stall time: 26
Additional hops: 2530
Set signal latency stall time: 14
Additional hops: 2536
Set signal latency stall time: 12
Reenqueueing errored packet 51074 at time 1581
Reenqueueing errored packet 46790 at time 1581
Additional hops: 2548
Set signal latency stall time: 24
Reenqueueing errored packet 45147 at time 1586
Additional hops: 2555
Set signal latency stall time: 14
Reenqueueing errored packet 59853 at time 1588
Reenqueueing errored packet 46868 at time 1590
Additional hops: 2560
Set signal latency stall time: 10
Reenqueueing errored packet 56612 at time 1591
Additional hops: 2568
Set signal latency stall time: 16
Reenqueueing errored packet 50598 at time 1593
Additional hops: 2571
Set signal latency stall time: 6
Reenqueueing errored packet 59699 at time 1601
Reenqueueing errored packet 56727 at time 1601
Additional hops: 2576
Set signal latency stall time: 10
Additional hops: 2580
Set signal latency stall time: 8
Additional hops: 2592
Set signal latency stall time: 24
Reenqueueing errored packet 60826 at time 1603
Reenqueueing errored packet 41744 at time 1604
Additional hops: 2598
Set signal latency stall time: 12
Reenqueueing errored packet 50303 at time 1609
Reenqueueing errored packet 58997 at time 1610
Reenqueueing errored packet 45352 at time 1610
Reenqueueing errored packet 48232 at time 1612
Reenqueueing errored packet 52777 at time 1617
Additional hops: 2605
Set signal latency stall time: 14
Additional hops: 2616
Set signal latency stall time: 22
Additional hops: 2624
Set signal latency stall time: 16
Additional hops: 2634
Set signal latency stall time: 20
Additional hops: 2643
Set signal latency stall time: 18
Additional hops: 2644
Set signal latency stall time: 2
Additional hops: 2651
Set signal latency stall time: 14
Reenqueueing errored packet 44729 at time 1627
Reenqueueing errored packet 62266 at time 1629
Additional hops: 2660
Set signal latency stall time: 18
Additional hops: 2666
Set signal latency stall time: 12
Reenqueueing errored packet 52270 at time 1634
Reenqueueing errored packet 45222 at time 1637
Reenqueueing errored packet 54777 at time 1641
Reenqueueing errored packet 44672 at time 1641
Reenqueueing errored packet 51097 at time 1642
Reenqueueing errored packet 42167 at time 1643
Additional hops: 2674
Set signal latency stall time: 16
Reenqueueing errored packet 48274 at time 1644
Additional hops: 2679
Set signal latency stall time: 10
Reenqueueing errored packet 45192 at time 1648
Additional hops: 2687
Set signal latency stall time: 16
Additional hops: 2690
Set signal latency stall time: 6
Reenqueueing errored packet 49415 at time 1655
Additional hops: 2695
Set signal latency stall time: 10
Additional hops: 2702
Set signal latency stall time: 14
Reenqueueing errored packet 63034 at time 1659
Additional hops: 2707
Set signal latency stall time: 10
Reenqueueing errored packet 43936 at time 1660
Additional hops: 2715
Set signal latency stall time: 16
Reenqueueing errored packet 50582 at time 1667
Reenqueueing errored packet 62705 at time 1668
Additional hops: 2724
Set signal latency stall time: 18
Additional hops: 2732
Set signal latency stall time: 16
Reenqueueing errored packet 62540 at time 1670
Reenqueueing errored packet 50564 at time 1672
Additional hops: 2736
Set signal latency stall time: 8
Additional hops: 2747
Set signal latency stall time: 22
Additional hops: 2754
Set signal latency stall time: 14
Reenqueueing errored packet 55079 at time 1680
Additional hops: 2761
Set signal latency stall time: 14
Additional hops: 2765
Set signal latency stall time: 8
Reenqueueing errored packet 48916 at time 1685
Reenqueueing errored packet 60339 at time 1686
Reenqueueing errored packet 45986 at time 1687
Additional hops: 2770
Set signal latency stall time: 10
Reenqueueing errored packet 64003 at time 1693
Reenqueueing errored packet 60474 at time 1693
Reenqueueing errored packet 52532 at time 1695
Additional hops: 2778
Set signal latency stall time: 16
Reenqueueing errored packet 57985 at time 1700
Reenqueueing errored packet 49145 at time 1701
Additional hops: 2783
Set signal latency stall time: 10
Additional hops: 2788
Set signal latency stall time: 10
Additional hops: 2796
Set signal latency stall time: 16
Reenqueueing errored packet 51758 at time 1714
Additional hops: 2801
Set signal latency stall time: 10
Reenqueueing errored packet 50740 at time 1718
Additional hops: 2807
Set signal latency stall time: 12
Additional hops: 2816
Set signal latency stall time: 18
Reenqueueing errored packet 57705 at time 1720
Additional hops: 2824
Set signal latency stall time: 16
Additional hops: 2833
Set signal latency stall time: 18
Additional hops: 2841
Set signal latency stall time: 16
Reenqueueing errored packet 57113 at time 1725
Additional hops: 2849
Set signal latency stall time: 16
Reenqueueing errored packet 55719 at time 1730
Additional hops: 2855
Set signal latency stall time: 12
Reenqueueing errored packet 65145 at time 1732
Reenqueueing errored packet 55871 at time 1737
Reenqueueing errored packet 49653 at time 1738
Reenqueueing errored packet 53159 at time 1740
Reenqueueing errored packet 61837 at time 1741
Reenqueueing errored packet 61326 at time 1742
Additional hops: 2859
Set signal latency stall time: 8
Reenqueueing errored packet 57229 at time 1744
Additional hops: 2864
Set signal latency stall time: 10
Additional hops: 2871
Set signal latency stall time: 14
Additional hops: 2877
Set signal latency stall time: 12
Additional hops: 2882
Set signal latency stall time: 10
Reenqueueing errored packet 66229 at time 1752
Reenqueueing errored packet 56106 at time 1756
Reenqueueing errored packet 51752 at time 1760
Additional hops: 2887
Set signal latency stall time: 10
Additional hops: 2892
Set signal latency stall time: 10
Reenqueueing errored packet 55946 at time 1762
Reenqueueing errored packet 54915 at time 1762
Reenqueueing errored packet 60602 at time 1771
Reenqueueing errored packet 56923 at time 1772
Additional hops: 2896
Set signal latency stall time: 8
Additional hops: 2905
Set signal latency stall time: 18
Additional hops: 2912
Set signal latency stall time: 14
Reenqueueing errored packet 57683 at time 1783
Additional hops: 2918
Set signal latency stall time: 12
Reenqueueing errored packet 58075 at time 1795
Additional hops: 2923
Set signal latency stall time: 10
Reenqueueing errored packet 53982 at time 1799
Additional hops: 2930
Set signal latency stall time: 14
Reenqueueing errored packet 54754 at time 1801
Additional hops: 2935
Set signal latency stall time: 10
Additional hops: 2938
Set signal latency stall time: 6
Additional hops: 2945
Set signal latency stall time: 14
Additional hops: 2952
Set signal latency stall time: 14
Additional hops: 2964
Set signal latency stall time: 24
Additional hops: 2967
Set signal latency stall time: 6
Reenqueueing errored packet 59548 at time 1808
Reenqueueing errored packet 55421 at time 1809
Additional hops: 2972
Set signal latency stall time: 10
Reenqueueing errored packet 66289 at time 1812
Additional hops: 2983
Set signal latency stall time: 22
Additional hops: 2990
Set signal latency stall time: 14
Reenqueueing errored packet 68779 at time 1814
Reenqueueing errored packet 52171 at time 1814
Reenqueueing errored packet 61729 at time 1816
Reenqueueing errored packet 58188 at time 1816
Reenqueueing errored packet 55255 at time 1821
Additional hops: 2995
Set signal latency stall time: 10
Reenqueueing errored packet 55118 at time 1828
Reenqueueing errored packet 55914 at time 1830
Reenqueueing errored packet 61265 at time 1834
Reenqueueing errored packet 52390 at time 1835
Additional hops: 3001
Set signal latency stall time: 12
Reenqueueing errored packet 49620 at time 1848
Additional hops: 3013
Set signal latency stall time: 24
Additional hops: 3020
Set signal latency stall time: 14
Reenqueueing errored packet 48375 at time 1865
Additional hops: 3028
Set signal latency stall time: 16
Additional hops: 3036
Set signal latency stall time: 16
Additional hops: 3056
Set signal latency stall time: 40
Reenqueueing errored packet 51134 at time 1874
Additional hops: 3060
Set signal latency stall time: 8
Additional hops: 3069
Set signal latency stall time: 18
Reenqueueing errored packet 64099 at time 1883
Reenqueueing errored packet 63701 at time 1885
Additional hops: 3075
Set signal latency stall time: 12
Reenqueueing errored packet 66817 at time 1889
Reenqueueing errored packet 56909 at time 1899
Reenqueueing errored packet 64727 at time 1901
Additional hops: 3083
Set signal latency stall time: 16
Additional hops: 3092
Set signal latency stall time: 18
Additional hops: 3100
Set signal latency stall time: 16
Reenqueueing errored packet 38945 at time 1913
Additional hops: 3109
Set signal latency stall time: 18
Additional hops: 3117
Set signal latency stall time: 16
Reenqueueing errored packet 54228 at time 1919
Additional hops: 3125
Set signal latency stall time: 16
Reenqueueing errored packet 59315 at time 1922
Additional hops: 3131
Set signal latency stall time: 12
Additional hops: 3132
Set signal latency stall time: 2
Reenqueueing errored packet 68775 at time 1928
Reenqueueing errored packet 73707 at time 1930
Reenqueueing errored packet 55347 at time 1932
Reenqueueing errored packet 64118 at time 1935
Reenqueueing errored packet 57317 at time 1936
Reenqueueing errored packet 65690 at time 1938
Additional hops: 3136
Set signal latency stall time: 8
Additional hops: 3141
Set signal latency stall time: 10
Additional hops: 3147
Set signal latency stall time: 12
Additional hops: 3151
Set signal latency stall time: 8
Reenqueueing errored packet 69931 at time 1947
Additional hops: 3157
Set signal latency stall time: 12
Reenqueueing errored packet 61144 at time 1950
Additional hops: 3164
Set signal latency stall time: 14
Additional hops: 3167
Set signal latency stall time: 6
Reenqueueing errored packet 70173 at time 1952
Additional hops: 3180
Set signal latency stall time: 26
Reenqueueing errored packet 73803 at time 1955
Reenqueueing errored packet 74448 at time 1958
Additional hops: 3186
Set signal latency stall time: 12
Reenqueueing errored packet 58191 at time 1960
Reenqueueing errored packet 57458 at time 1965
Additional hops: 3190
Set signal latency stall time: 8
Reenqueueing errored packet 67060 at time 1971
Additional hops: 3201
Set signal latency stall time: 22
Additional hops: 3209
Set signal latency stall time: 16
Reenqueueing errored packet 74644 at time 1976
Reenqueueing errored packet 53842 at time 1980
Additional hops: 3214
Set signal latency stall time: 10
Additional hops: 3223
Set signal latency stall time: 18
Additional hops: 3231
Set signal latency stall time: 16
Additional hops: 3240
Set signal latency stall time: 18
Reenqueueing errored packet 61564 at time 1991
Reenqueueing errored packet 65652 at time 1994
Reenqueueing errored packet 56748 at time 1997
Reenqueueing errored packet 69493 at time 2000
Reenqueueing errored packet 53432 at time 2002
Additional hops: 3248
Set signal latency stall time: 16
Additional hops: 3253
Set signal latency stall time: 10
Reenqueueing errored packet 56395 at time 2008
Reenqueueing errored packet 66880 at time 2015
Additional hops: 3261
Set signal latency stall time: 16
Reenqueueing errored packet 55441 at time 2020
Reenqueueing errored packet 55776 at time 2033
Additional hops: 3269
Set signal latency stall time: 16
Additional hops: 3272
Set signal latency stall time: 6
Additional hops: 3283
Set signal latency stall time: 22
Reenqueueing errored packet 76934 at time 2041
Additional hops: 3291
Set signal latency stall time: 16
Additional hops: 3300
Set signal latency stall time: 18
Additional hops: 3307
Set signal latency stall time: 14
Additional hops: 3313
Set signal latency stall time: 12
Additional hops: 3321
Set signal latency stall time: 16
Reenqueueing errored packet 57991 at time 2051
Additional hops: 3330
Set signal latency stall time: 18
Additional hops: 3340
Set signal latency stall time: 20
Reenqueueing errored packet 58827 at time 2058
Reenqueueing errored packet 68611 at time 2059
Reenqueueing errored packet 56602 at time 2059
Additional hops: 3344
Set signal latency stall time: 8
Reenqueueing errored packet 75290 at time 2060
Reenqueueing errored packet 66555 at time 2062
Reenqueueing errored packet 72771 at time 2065
Additional hops: 3352
Set signal latency stall time: 16
Reenqueueing errored packet 78199 at time 2068
Additional hops: 3353
Set signal latency stall time: 2
Additional hops: 3360
Set signal latency stall time: 14
Reenqueueing errored packet 79198 at time 2071
Additional hops: 3366
Set signal latency stall time: 12
Additional hops: 3371
Set signal latency stall time: 10
Reenqueueing errored packet 59764 at time 2073
Additional hops: 3380
Set signal latency stall time: 18
Additional hops: 3385
Set signal latency stall time: 10
Additional hops: 3393
Set signal latency stall time: 16
Reenqueueing errored packet 59195 at time 2078
Additional hops: 3398
Set signal latency stall time: 10
Reenqueueing errored packet 70764 at time 2082
Reenqueueing errored packet 68747 at time 2082
Additional hops: 3401
Set signal latency stall time: 6
Reenqueueing errored packet 72940 at time 2084
Reenqueueing errored packet 71644 at time 2084
Additional hops: 3406
Set signal latency stall time: 10
Reenqueueing errored packet 64673 at time 2086
Additional hops: 3413
Set signal latency stall time: 14
Additional hops: 3424
Set signal latency stall time: 22
Additional hops: 3434
Set signal latency stall time: 20
Reenqueueing errored packet 77229 at time 2090
Additional hops: 3442
Set signal latency stall time: 16
Reenqueueing errored packet 59927 at time 2091
Reenqueueing errored packet 71712 at time 2094
Reenqueueing errored packet 54416 at time 2094
Reenqueueing errored packet 79371 at time 2096
Additional hops: 3451
Set signal latency stall time: 18
Reenqueueing errored packet 62272 at time 2101
Additional hops: 3459
Set signal latency stall time: 16
Reenqueueing errored packet 65328 at time 2107
Reenqueueing errored packet 64202 at time 2110
Reenqueueing errored packet 54961 at time 2110
Additional hops: 3468
Set signal latency stall time: 18
Reenqueueing errored packet 63203 at time 2115
Reenqueueing errored packet 72713 at time 2121
Additional hops: 3473
Set signal latency stall time: 10
Additional hops: 3481
Set signal latency stall time: 16
Additional hops: 3490
Set signal latency stall time: 18
Additional hops: 3494
Set signal latency stall time: 8
Reenqueueing errored packet 72298 at time 2130
Additional hops: 3502
Set signal latency stall time: 16
Additional hops: 3508
Set signal latency stall time: 12
Reenqueueing errored packet 72349 at time 2133
Reenqueueing errored packet 70438 at time 2138
Additional hops: 3518
Set signal latency stall time: 20
Reenqueueing errored packet 65609 at time 2143
Reenqueueing errored packet 70156 at time 2145
Additional hops: 3526
Set signal latency stall time: 16
Reenqueueing errored packet 63176 at time 2147
Reenqueueing errored packet 73392 at time 2147
Additional hops: 3538
Set signal latency stall time: 24
Additional hops: 3546
Set signal latency stall time: 16
Additional hops: 3552
Set signal latency stall time: 12
Additional hops: 3561
Set signal latency stall time: 18
Reenqueueing errored packet 69878 at time 2162
Reenqueueing errored packet 66278 at time 2163
Additional hops: 3569
Set signal latency stall time: 16
Reenqueueing errored packet 59842 at time 2171
Reenqueueing errored packet 71929 at time 2173
Additional hops: 3581
Set signal latency stall time: 24
Reenqueueing errored packet 61148 at time 2178
Additional hops: 3595
Set signal latency stall time: 28
Reenqueueing errored packet 60909 at time 2180
Reenqueueing errored packet 68647 at time 2183
Additional hops: 3601
Set signal latency stall time: 12
Additional hops: 3610
Set signal latency stall time: 18
Additional hops: 3616
Set signal latency stall time: 12
Additional hops: 3618
Set signal latency stall time: 4
Reenqueueing errored packet 54587 at time 2199
Reenqueueing errored packet 79342 at time 2200
Reenqueueing errored packet 84135 at time 2203
Reenqueueing errored packet 76193 at time 2205
Reenqueueing errored packet 56857 at time 2208
Additional hops: 3623
Set signal latency stall time: 10
Additional hops: 3630
Set signal latency stall time: 14
Reenqueueing errored packet 69756 at time 2210
Additional hops: 3638
Set signal latency stall time: 16
Additional hops: 3646
Set signal latency stall time: 16
Additional hops: 3655
Set signal latency stall time: 18
Additional hops: 3661
Set signal latency stall time: 12
Reenqueueing errored packet 84020 at time 2219
Additional hops: 3667
Set signal latency stall time: 12
Reenqueueing errored packet 76145 at time 2224
Additional hops: 3679
Set signal latency stall time: 24
Reenqueueing errored packet 60002 at time 2229
Reenqueueing errored packet 74169 at time 2230
Reenqueueing errored packet 75101 at time 2231
Reenqueueing errored packet 78570 at time 2233
Reenqueueing errored packet 60058 at time 2234
Additional hops: 3685
Set signal latency stall time: 12
Reenqueueing errored packet 66128 at time 2250
Additional hops: 3692
Set signal latency stall time: 14
Additional hops: 3703
Set signal latency stall time: 22
Additional hops: 3708
Set signal latency stall time: 10
Reenqueueing errored packet 78099 at time 2260
Additional hops: 3718
Set signal latency stall time: 20
Additional hops: 3729
Set signal latency stall time: 22
Additional hops: 3733
Set signal latency stall time: 8
Reenqueueing errored packet 77238 at time 2266
Reenqueueing errored packet 73991 at time 2266
Additional hops: 3741
Set signal latency stall time: 16
Reenqueueing errored packet 75585 at time 2272
Reenqueueing errored packet 64148 at time 2278
Additional hops: 3749
Set signal latency stall time: 16
Additional hops: 3754
Set signal latency stall time: 10
Additional hops: 3758
Set signal latency stall time: 8
Additional hops: 3762
Set signal latency stall time: 8
Reenqueueing errored packet 62499 at time 2282
Reenqueueing errored packet 63476 at time 2284
Reenqueueing errored packet 67648 at time 2287
Reenqueueing errored packet 71765 at time 2288
Reenqueueing errored packet 66958 at time 2288
Additional hops: 3770
Set signal latency stall time: 16
Reenqueueing errored packet 66531 at time 2289
Additional hops: 3780
Set signal latency stall time: 20
Additional hops: 3788
Set signal latency stall time: 16
Additional hops: 3797
Set signal latency stall time: 18
Reenqueueing errored packet 70740 at time 2295
Additional hops: 3805
Set signal latency stall time: 16
Reenqueueing errored packet 80819 at time 2305
Additional hops: 3810
Set signal latency stall time: 10
Reenqueueing errored packet 67756 at time 2307
Additional hops: 3818
Set signal latency stall time: 16
Reenqueueing errored packet 67695 at time 2309
Reenqueueing errored packet 61546 at time 2310
Additional hops: 3820
Set signal latency stall time: 4
Additional hops: 3825
Set signal latency stall time: 10
Additional hops: 3834
Set signal latency stall time: 18
Reenqueueing errored packet 88571 at time 2317
Reenqueueing errored packet 79534 at time 2319
Additional hops: 3842
Set signal latency stall time: 16
Reenqueueing errored packet 72244 at time 2324
Additional hops: 3847
Set signal latency stall time: 10
Reenqueueing errored packet 82136 at time 2326
Additional hops: 3853
Set signal latency stall time: 12
Reenqueueing errored packet 75187 at time 2335
Reenqueueing errored packet 77534 at time 2336
Additional hops: 3857
Set signal latency stall time: 8
Reenqueueing errored packet 76446 at time 2338
Additional hops: 3861
Set signal latency stall time: 8
Additional hops: 3863
Set signal latency stall time: 4
Additional hops: 3871
Set signal latency stall time: 16
Additional hops: 3874
Set signal latency stall time: 6
Reenqueueing errored packet 89479 at time 2345
Additional hops: 3885
Set signal latency stall time: 22
Reenqueueing errored packet 89125 at time 2346
Reenqueueing errored packet 71017 at time 2346
Reenqueueing errored packet 89169 at time 2348
Reenqueueing errored packet 89554 at time 2349
Additional hops: 3892
Set signal latency stall time: 14
Additional hops: 3895
Set signal latency stall time: 6
Additional hops: 3899
Set signal latency stall time: 8
Reenqueueing errored packet 65142 at time 2357
Additional hops: 3904
Set signal latency stall time: 10
Additional hops: 3907
Set signal latency stall time: 6
Reenqueueing errored packet 88168 at time 2359
Reenqueueing errored packet 79978 at time 2364
Reenqueueing errored packet 70234 at time 2364
Additional hops: 3914
Set signal latency stall time: 14
Additional hops: 3916
Set signal latency stall time: 4
Reenqueueing errored packet 89969 at time 2365
Reenqueueing errored packet 59946 at time 2368
Reenqueueing errored packet 88982 at time 2369
Reenqueueing errored packet 81567 at time 2369
Additional hops: 3923
Set signal latency stall time: 14
Additional hops: 3930
Set signal latency stall time: 14
Additional hops: 3935
Set signal latency stall time: 10
Additional hops: 3943
Set signal latency stall time: 16
Reenqueueing errored packet 80456 at time 2379
Additional hops: 3949
Set signal latency stall time: 12
Additional hops: 3958
Set signal latency stall time: 18
Reenqueueing errored packet 87418 at time 2385
Reenqueueing errored packet 73190 at time 2386
Reenqueueing errored packet 83295 at time 2386
Additional hops: 3965
Set signal latency stall time: 14
Additional hops: 3971
Set signal latency stall time: 12
Additional hops: 3981
Set signal latency stall time: 20
Additional hops: 3986
Set signal latency stall time: 10
Reenqueueing errored packet 67234 at time 2394
Reenqueueing errored packet 65487 at time 2395
Additional hops: 3991
Set signal latency stall time: 10
Reenqueueing errored packet 74581 at time 2400
Additional hops: 3992
Set signal latency stall time: 2
Reenqueueing errored packet 84083 at time 2401
Reenqueueing errored packet 71091 at time 2401
Reenqueueing errored packet 92070 at time 2403
Reenqueueing errored packet 90100 at time 2404
Additional hops: 3999
Set signal latency stall time: 14
Reenqueueing errored packet 87813 at time 2406
Reenqueueing errored packet 68174 at time 2411
Reenqueueing errored packet 74664 at time 2420
Additional hops: 4010
Set signal latency stall time: 22
Additional hops: 4017
Set signal latency stall time: 14
Additional hops: 4031
Set signal latency stall time: 28
Reenqueueing errored packet 67746 at time 2439
Reenqueueing errored packet 66638 at time 2445
Additional hops: 4038
Set signal latency stall time: 14
Additional hops: 4046
Set signal latency stall time: 16
Reenqueueing errored packet 66246 at time 2461
Additional hops: 4055
Set signal latency stall time: 18
Additional hops: 4065
Set signal latency stall time: 20
Additional hops: 4075
Set signal latency stall time: 20
Reenqueueing errored packet 72044 at time 2471
Reenqueueing errored packet 84364 at time 2474
Additional hops: 4084
Set signal latency stall time: 18
Reenqueueing errored packet 72208 at time 2481
Reenqueueing errored packet 66363 at time 2487
Reenqueueing errored packet 86557 at time 2491
Additional hops: 4089
Set signal latency stall time: 10
Reenqueueing errored packet 75629 at time 2498
Additional hops: 4096
Set signal latency stall time: 14
Additional hops: 4099
Set signal latency stall time: 6
Reenqueueing errored packet 84930 at time 2508
Additional hops: 4104
Set signal latency stall time: 10
Reenqueueing errored packet 89663 at time 2510
Reenqueueing errored packet 75519 at time 2516
Additional hops: 4108
Set signal latency stall time: 8
Reenqueueing errored packet 84291 at time 2519
Additional hops: 4112
Set signal latency stall time: 8
Additional hops: 4121
Set signal latency stall time: 18
Additional hops: 4127
Set signal latency stall time: 12
Reenqueueing errored packet 86106 at time 2525
Additional hops: 4136
Set signal latency stall time: 18
Additional hops: 4146
Set signal latency stall time: 20
Reenqueueing errored packet 86606 at time 2528
Additional hops: 4151
Set signal latency stall time: 10
Additional hops: 4153
Set signal latency stall time: 4
Additional hops: 4156
Set signal latency stall time: 6
Reenqueueing errored packet 90428 at time 2536
Reenqueueing errored packet 83436 at time 2536
Additional hops: 4161
Set signal latency stall time: 10
Additional hops: 4165
Set signal latency stall time: 8
Reenqueueing errored packet 85594 at time 2541
Reenqueueing errored packet 70120 at time 2541
Reenqueueing errored packet 86825 at time 2542
Reenqueueing errored packet 85987 at time 2544
Additional hops: 4172
Set signal latency stall time: 14
Reenqueueing errored packet 96157 at time 2547
Reenqueueing errored packet 96491 at time 2548
Reenqueueing errored packet 71672 at time 2548
Additional hops: 4176
Set signal latency stall time: 8
Additional hops: 4184
Set signal latency stall time: 16
Additional hops: 4192
Set signal latency stall time: 16
Reenqueueing errored packet 95055 at time 2559
Reenqueueing errored packet 75155 at time 2561
Additional hops: 4201
Set signal latency stall time: 18
Additional hops: 4208
Set signal latency stall time: 14
Reenqueueing errored packet 69809 at time 2567
Additional hops: 4214
Set signal latency stall time: 12
Additional hops: 4220
Set signal latency stall time: 12
Additional hops: 4232
Set signal latency stall time: 24
Additional hops: 4238
Set signal latency stall time: 12
Reenqueueing errored packet 90421 at time 2572
Additional hops: 4242
Set signal latency stall time: 8
Reenqueueing errored packet 84722 at time 2580
Reenqueueing errored packet 76785 at time 2580
Additional hops: 4249
Set signal latency stall time: 14
Reenqueueing errored packet 88337 at time 2581
Additional hops: 4255
Set signal latency stall time: 12
Reenqueueing errored packet 69458 at time 2583
Additional hops: 4259
Set signal latency stall time: 8
Reenqueueing errored packet 79365 at time 2584
Reenqueueing errored packet 98332 at time 2585
Additional hops: 4262
Set signal latency stall time: 6
Reenqueueing errored packet 86734 at time 2592
Reenqueueing errored packet 88639 at time 2595
Reenqueueing errored packet 92612 at time 2595
Reenqueueing errored packet 69904 at time 2596
Additional hops: 4267
Set signal latency stall time: 10
Reenqueueing errored packet 92028 at time 2598
Additional hops: 4277
Set signal latency stall time: 20
Additional hops: 4283
Set signal latency stall time: 12
Additional hops: 4288
Set signal latency stall time: 10
Additional hops: 4298
Set signal latency stall time: 20
Reenqueueing errored packet 77251 at time 2608
Additional hops: 4307
Set signal latency stall time: 18
Additional hops: 4313
Set signal latency stall time: 12
Reenqueueing errored packet 77397 at time 2615
Reenqueueing errored packet 88558 at time 2616
Additional hops: 4325
Set signal latency stall time: 24
Reenqueueing errored packet 79320 at time 2623
Reenqueueing errored packet 87282 at time 2626
Reenqueueing errored packet 78943 at time 2627
Reenqueueing errored packet 72842 at time 2628
Additional hops: 4338
Set signal latency stall time: 26
Additional hops: 4340
Set signal latency stall time: 4
Reenqueueing errored packet 71642 at time 2641
Reenqueueing errored packet 95043 at time 2645
Additional hops: 4350
Set signal latency stall time: 20
Additional hops: 4355
Set signal latency stall time: 10
Additional hops: 4362
Set signal latency stall time: 14
Additional hops: 4373
Set signal latency stall time: 22
Additional hops: 4382
Set signal latency stall time: 18
Reenqueueing errored packet 91406 at time 2658
Reenqueueing errored packet 72022 at time 2664
Additional hops: 4390
Set signal latency stall time: 16
Reenqueueing errored packet 90874 at time 2665
Reenqueueing errored packet 72578 at time 2667
Additional hops: 4399
Set signal latency stall time: 18
Additional hops: 4411
Set signal latency stall time: 24
Additional hops: 4421
Set signal latency stall time: 20
Reenqueueing errored packet 70816 at time 2673
Additional hops: 4430
Set signal latency stall time: 18
Additional hops: 4438
Set signal latency stall time: 16
Reenqueueing errored packet 73069 at time 2676
Additional hops: 4442
Set signal latency stall time: 8
Reenqueueing errored packet 84043 at time 2681
Additional hops: 4455
Set signal latency stall time: 26
Additional hops: 4461
Set signal latency stall time: 12
Reenqueueing errored packet 95508 at time 2685
Reenqueueing errored packet 82019 at time 2688
Additional hops: 4464
Set signal latency stall time: 6
Additional hops: 4467
Set signal latency stall time: 6
Reenqueueing errored packet 79431 at time 2692
Reenqueueing errored packet 84174 at time 2692
Additional hops: 4477
Set signal latency stall time: 20
Reenqueueing errored packet 91132 at time 2693
Additional hops: 4484
Set signal latency stall time: 14
Reenqueueing errored packet 85131 at time 2695
Reenqueueing errored packet 90449 at time 2696
Reenqueueing errored packet 73698 at time 2696
Reenqueueing errored packet 94657 at time 2698
Additional hops: 4491
Set signal latency stall time: 14
Additional hops: 4501
Set signal latency stall time: 20
Additional hops: 4512
Set signal latency stall time: 22
Additional hops: 4520
Set signal latency stall time: 16
Additional hops: 4526
Set signal latency stall time: 12
Additional hops: 4534
Set signal latency stall time: 16
Reenqueueing errored packet 81096 at time 2708
Reenqueueing errored packet 68817 at time 2709
Reenqueueing errored packet 82288 at time 2713
Additional hops: 4544
Set signal latency stall time: 20
Reenqueueing errored packet 92795 at time 2715
Reenqueueing errored packet 79889 at time 2719
Additional hops: 4551
Set signal latency stall time: 14
Reenqueueing errored packet 79031 at time 2722
Reenqueueing errored packet 75107 at time 2722
Reenqueueing errored packet 83879 at time 2723
Additional hops: 4561
Set signal latency stall time: 20
Reenqueueing errored packet 74095 at time 2727
Additional hops: 4569
Set signal latency stall time: 16
Additional hops: 4571
Set signal latency stall time: 4
Reenqueueing errored packet 80288 at time 2734
Reenqueueing errored packet 80474 at time 2735
Additional hops: 4577
Set signal latency stall time: 12
Reenqueueing errored packet 97505 at time 2737
Additional hops: 4581
Set signal latency stall time: 8
Reenqueueing errored packet 80799 at time 2745
Reenqueueing errored packet 80488 at time 2746
Reenqueueing errored packet 92401 at time 2747
Reenqueueing errored packet 97036 at time 2748
Additional hops: 4589
Set signal latency stall time: 16
Additional hops: 4598
Set signal latency stall time: 18
Additional hops: 4601
Set signal latency stall time: 6
Reenqueueing errored packet 82458 at time 2773
Additional hops: 4604
Set signal latency stall time: 6
Reenqueueing errored packet 105943 at time 2777
Reenqueueing errored packet 74931 at time 2780
Reenqueueing errored packet 105870 at time 2781
Additional hops: 4614
Set signal latency stall time: 20
Additional hops: 4624
Set signal latency stall time: 20
Additional hops: 4630
Set signal latency stall time: 12
Additional hops: 4633
Set signal latency stall time: 6
Additional hops: 4644
Set signal latency stall time: 22
Reenqueueing errored packet 92770 at time 2799
Reenqueueing errored packet 92285 at time 2804
Additional hops: 4653
Set signal latency stall time: 18
Reenqueueing errored packet 71297 at time 2807
Reenqueueing errored packet 74480 at time 2807
Additional hops: 4657
Set signal latency stall time: 8
Additional hops: 4663
Set signal latency stall time: 12
Reenqueueing errored packet 78052 at time 2820
Additional hops: 4674
Set signal latency stall time: 22
Additional hops: 4679
Set signal latency stall time: 10
Reenqueueing errored packet 84042 at time 2823
Reenqueueing errored packet 106164 at time 2825
Reenqueueing errored packet 98320 at time 2830
Additional hops: 4687
Set signal latency stall time: 16
Reenqueueing errored packet 100048 at time 2831
Reenqueueing errored packet 86439 at time 2843
Reenqueueing errored packet 83683 at time 2847
Additional hops: 4694
Set signal latency stall time: 14
Additional hops: 4706
Set signal latency stall time: 24
Additional hops: 4712
Set signal latency stall time: 12
Additional hops: 4718
Set signal latency stall time: 12
Additional hops: 4727
Set signal latency stall time: 18
Additional hops: 4730
Set signal latency stall time: 6
Additional hops: 4738
Set signal latency stall time: 16
Additional hops: 4745
Set signal latency stall time: 14
Reenqueueing errored packet 84602 at time 2863
Reenqueueing errored packet 101761 at time 2864
Reenqueueing errored packet 104000 at time 2864
Additional hops: 4748
Set signal latency stall time: 6
Additional hops: 4755
Set signal latency stall time: 14
Additional hops: 4763
Set signal latency stall time: 16
Reenqueueing errored packet 92291 at time 2868
Reenqueueing errored packet 109470 at time 2871
Additional hops: 4776
Set signal latency stall time: 26
Reenqueueing errored packet 77805 at time 2873
Additional hops: 4782
Set signal latency stall time: 12
Reenqueueing errored packet 84703 at time 2875
Reenqueueing errored packet 99997 at time 2877
Reenqueueing errored packet 85001 at time 2879
Reenqueueing errored packet 85583 at time 2881
Reenqueueing errored packet 75710 at time 2884
Additional hops: 4790
Set signal latency stall time: 16
Reenqueueing errored packet 90285 at time 2886
Additional hops: 4793
Set signal latency stall time: 6
Additional hops: 4795
Set signal latency stall time: 4
Additional hops: 4798
Set signal latency stall time: 6
Additional hops: 4807
Set signal latency stall time: 18
Reenqueueing errored packet 110695 at time 2896
Additional hops: 4815
Set signal latency stall time: 16
Reenqueueing errored packet 110520 at time 2898
Reenqueueing errored packet 79027 at time 2898
Reenqueueing errored packet 110110 at time 2900
Reenqueueing errored packet 92639 at time 2901
Additional hops: 4824
Set signal latency stall time: 18
Additional hops: 4828
Set signal latency stall time: 8
Reenqueueing errored packet 98845 at time 2913
Additional hops: 4839
Set signal latency stall time: 22
Reenqueueing errored packet 82784 at time 2914
Additional hops: 4843
Set signal latency stall time: 8
Reenqueueing errored packet 109638 at time 2918
Reenqueueing errored packet 94734 at time 2920
Additional hops: 4849
Set signal latency stall time: 12
Additional hops: 4854
Set signal latency stall time: 10
Reenqueueing errored packet 111291 at time 2924
Additional hops: 4857
Set signal latency stall time: 6
Additional hops: 4863
Set signal latency stall time: 12
Additional hops: 4871
Set signal latency stall time: 16
Reenqueueing errored packet 102043 at time 2931
Additional hops: 4878
Set signal latency stall time: 14
Reenqueueing errored packet 88625 at time 2934
Reenqueueing errored packet 97703 at time 2934
Additional hops: 4884
Set signal latency stall time: 12
Reenqueueing errored packet 81076 at time 2936
Reenqueueing errored packet 101607 at time 2940
Additional hops: 4890
Set signal latency stall time: 12
Additional hops: 4899
Set signal latency stall time: 18
Additional hops: 4906
Set signal latency stall time: 14
Additional hops: 4916
Set signal latency stall time: 20
Additional hops: 4929
Set signal latency stall time: 26
Reenqueueing errored packet 99560 at time 2947
Reenqueueing errored packet 96963 at time 2948
Reenqueueing errored packet 92181 at time 2948
Additional hops: 4937
Set signal latency stall time: 16
Reenqueueing errored packet 96483 at time 2954
Reenqueueing errored packet 85673 at time 2956
Additional hops: 4939
Set signal latency stall time: 4
Additional hops: 4946
Set signal latency stall time: 14
Reenqueueing errored packet 79284 at time 2960
Additional hops: 4948
Set signal latency stall time: 4
Reenqueueing errored packet 113255 at time 2961
Additional hops: 4957
Set signal latency stall time: 18
Additional hops: 4966
Set signal latency stall time: 18
Reenqueueing errored packet 110480 at time 2965
Reenqueueing errored packet 86303 at time 2965
Reenqueueing errored packet 89349 at time 2968
Additional hops: 4970
Set signal latency stall time: 8
Reenqueueing errored packet 92997 at time 2972
Reenqueueing errored packet 78548 at time 2972
Additional hops: 4979
Set signal latency stall time: 18
Additional hops: 4985
Set signal latency stall time: 12
Reenqueueing errored packet 113255 at time 2980
Reenqueueing errored packet 87937 at time 2980
Reenqueueing errored packet 83627 at time 2983
Additional hops: 4989
Set signal latency stall time: 8
Reenqueueing errored packet 103223 at time 2988
Additional hops: 4998
Set signal latency stall time: 18
Reenqueueing errored packet 81195 at time 2991
Reenqueueing errored packet 113869 at time 2992
Additional hops: 5004
Set signal latency stall time: 12
Additional hops: 5013
Set signal latency stall time: 18
Additional hops: 5023
Set signal latency stall time: 20
Reenqueueing errored packet 105236 at time 3006
Reenqueueing errored packet 91249 at time 3007
Additional hops: 5028
Set signal latency stall time: 10
Additional hops: 5036
Set signal latency stall time: 16
Additional hops: 5046
Set signal latency stall time: 20
Additional hops: 5053
Set signal latency stall time: 14
Reenqueueing errored packet 79667 at time 3017
Reenqueueing errored packet 93524 at time 3020
Reenqueueing errored packet 92623 at time 3021
Reenqueueing errored packet 101169 at time 3028
Reenqueueing errored packet 103670 at time 3031
Reenqueueing errored packet 82902 at time 3035
Additional hops: 5059
Set signal latency stall time: 12
Additional hops: 5064
Set signal latency stall time: 10
Reenqueueing errored packet 107772 at time 3057
Additional hops: 5068
Set signal latency stall time: 8
Reenqueueing errored packet 101996 at time 3061
Reenqueueing errored packet 109528 at time 3066
Additional hops: 5078
Set signal latency stall time: 20
Additional hops: 5080
Set signal latency stall time: 4
Reenqueueing errored packet 112542 at time 3072
Additional hops: 5085
Set signal latency stall time: 10
Additional hops: 5095
Set signal latency stall time: 20
Additional hops: 5101
Set signal latency stall time: 12
Additional hops: 5113
Set signal latency stall time: 24
Reenqueueing errored packet 117171 at time 3083
Additional hops: 5119
Set signal latency stall time: 12
Reenqueueing errored packet 103756 at time 3087
Reenqueueing errored packet 113346 at time 3089
Reenqueueing errored packet 90773 at time 3093
Reenqueueing errored packet 107208 at time 3096
Additional hops: 5129
Set signal latency stall time: 20
Additional hops: 5134
Set signal latency stall time: 10
Additional hops: 5138
Set signal latency stall time: 8
Reenqueueing errored packet 89859 at time 3107
Additional hops: 5149
Set signal latency stall time: 22
Additional hops: 5161
Set signal latency stall time: 24
Reenqueueing errored packet 112483 at time 3112
Additional hops: 5172
Set signal latency stall time: 22
Reenqueueing errored packet 118505 at time 3113
Reenqueueing errored packet 85677 at time 3120
Reenqueueing errored packet 86060 at time 3131
Reenqueueing errored packet 87246 at time 3133
Additional hops: 5182
Set signal latency stall time: 20
Reenqueueing errored packet 82162 at time 3135
Additional hops: 5194
Set signal latency stall time: 24
Additional hops: 5206
Set signal latency stall time: 24
Additional hops: 5214
Set signal latency stall time: 16
Additional hops: 5221
Set signal latency stall time: 14
Reenqueueing errored packet 98105 at time 3155
Additional hops: 5233
Set signal latency stall time: 24
Additional hops: 5237
Set signal latency stall time: 8
Additional hops: 5240
Set signal latency stall time: 6
Reenqueueing errored packet 85921 at time 3162
Reenqueueing errored packet 120479 at time 3164
Reenqueueing errored packet 113934 at time 3165
Additional hops: 5252
Set signal latency stall time: 24
Reenqueueing errored packet 112264 at time 3166
Reenqueueing errored packet 99781 at time 3166
Additional hops: 5263
Set signal latency stall time: 22
Additional hops: 5267
Set signal latency stall time: 8
Reenqueueing errored packet 83863 at time 3172
Additional hops: 5280
Set signal latency stall time: 26
Reenqueueing errored packet 121178 at time 3177
Additional hops: 5291
Set signal latency stall time: 22
Reenqueueing errored packet 84645 at time 3180
Additional hops: 5297
Set signal latency stall time: 12
Additional hops: 5307
Set signal latency stall time: 20
Additional hops: 5313
Set signal latency stall time: 12
Additional hops: 5321
Set signal latency stall time: 16
Reenqueueing errored packet 87456 at time 3189
Additional hops: 5325
Set signal latency stall time: 8
Reenqueueing errored packet 85320 at time 3190
Additional hops: 5330
Set signal latency stall time: 10
Reenqueueing errored packet 96764 at time 3194
Additional hops: 5339
Set signal latency stall time: 18
Reenqueueing errored packet 97644 at time 3198
Reenqueueing errored packet 94444 at time 3198
Reenqueueing errored packet 86593 at time 3199
Reenqueueing errored packet 108950 at time 3202
Reenqueueing errored packet 99758 at time 3202
Reenqueueing errored packet 85083 at time 3204
Reenqueueing errored packet 95153 at time 3205
Reenqueueing errored packet 99091 at time 3213
Additional hops: 5346
Set signal latency stall time: 14
Additional hops: 5352
Set signal latency stall time: 12
Additional hops: 5355
Set signal latency stall time: 6
Reenqueueing errored packet 123071 at time 3225
Reenqueueing errored packet 109736 at time 3228
Reenqueueing errored packet 113912 at time 3229
Additional hops: 5360
Set signal latency stall time: 10
Additional hops: 5372
Set signal latency stall time: 24
Additional hops: 5381
Set signal latency stall time: 18
Additional hops: 5388
Set signal latency stall time: 14
Reenqueueing errored packet 112867 at time 3254
Additional hops: 5394
Set signal latency stall time: 12
Additional hops: 5403
Set signal latency stall time: 18
Reenqueueing errored packet 114479 at time 3266
Reenqueueing errored packet 99044 at time 3267
Additional hops: 5416
Set signal latency stall time: 26
Reenqueueing errored packet 99401 at time 3270
Additional hops: 5420
Set signal latency stall time: 8
Additional hops: 5424
Set signal latency stall time: 8
Additional hops: 5434
Set signal latency stall time: 20
Reenqueueing errored packet 111727 at time 3272
Additional hops: 5437
Set signal latency stall time: 6
Reenqueueing errored packet 113472 at time 3279
Additional hops: 5442
Set signal latency stall time: 10
Reenqueueing errored packet 115304 at time 3280
Additional hops: 5449
Set signal latency stall time: 14
Reenqueueing errored packet 125199 at time 3283
Additional hops: 5458
Set signal latency stall time: 18
Reenqueueing errored packet 91426 at time 3284
Reenqueueing errored packet 120932 at time 3290
Additional hops: 5467
[...]
Additional hops: 15251
Set signal latency stall time: 20
Additional hops: 15254
Set signal latency stall time: 6
Reenqueueing errored packet 290829 at time 9159
Additional hops: 15265
Set signal latency stall time: 22
Additional hops: 15272
Set signal latency stall time: 14
Reenqueueing errored packet 253465 at time 9163
Additional hops: 15279
Set signal latency stall time: 14
Additional hops: 15289
Set signal latency stall time: 20
Reenqueueing errored packet 310784 at time 9169
Additional hops: 15294
Set signal latency stall time: 10
Additional hops: 15301
Set signal latency stall time: 14
Reenqueueing errored packet 311303 at time 9176
Reenqueueing errored packet 255694 at time 9177
Additional hops: 15307
Set signal latency stall time: 12
Additional hops: 15317
Set signal latency stall time: 20
Reenqueueing errored packet 309691 at time 9181
Reenqueueing errored packet 295602 at time 9181
Reenqueueing errored packet 245029 at time 9182
Additional hops: 15324
Set signal latency stall time: 14
Additional hops: 15332
Set signal latency stall time: 16
Reenqueueing errored packet 301253 at time 9187
Additional hops: 15339
Set signal latency stall time: 14
Reenqueueing errored packet 277111 at time 9189
Reenqueueing errored packet 271100 at time 9191
Reenqueueing errored packet 282392 at time 9199
Reenqueueing errored packet 287710 at time 9201
Reenqueueing errored packet 296346 at time 9201
Reenqueueing errored packet 276389 at time 9203
Additional hops: 15342
Set signal latency stall time: 6
Additional hops: 15350
Set signal latency stall time: 16
Additional hops: 15353
Set signal latency stall time: 6
Reenqueueing errored packet 325431 at time 9219
Additional hops: 15356
Set signal latency stall time: 6
Reenqueueing errored packet 332562 at time 9223
Reenqueueing errored packet 350707 at time 9227
Additional hops: 15359
Set signal latency stall time: 6
Reenqueueing errored packet 309521 at time 9230
Additional hops: 15361
Set signal latency stall time: 4
Reenqueueing errored packet 284792 at time 9235
Additional hops: 15368
Set signal latency stall time: 14
Additional hops: 15371
Set signal latency stall time: 6
Reenqueueing errored packet 331034 at time 9239
Additional hops: 15376
Set signal latency stall time: 10
Additional hops: 15380
Set signal latency stall time: 8
Additional hops: 15391
Set signal latency stall time: 22
Reenqueueing errored packet 339473 at time 9244
Reenqueueing errored packet 315199 at time 9250
Reenqueueing errored packet 307167 at time 9250
Reenqueueing errored packet 309930 at time 9251
Additional hops: 15397
Set signal latency stall time: 12
Additional hops: 15403
Set signal latency stall time: 12
Additional hops: 15412
Set signal latency stall time: 18
Additional hops: 15421
Set signal latency stall time: 18
Additional hops: 15423
Set signal latency stall time: 4
Additional hops: 15435
Set signal latency stall time: 24
Reenqueueing errored packet 326025 at time 9266
Reenqueueing errored packet 352315 at time 9267
Reenqueueing errored packet 340114 at time 9269
Reenqueueing errored packet 333581 at time 9270
Additional hops: 15440
Set signal latency stall time: 10
Reenqueueing errored packet 255957 at time 9278
Additional hops: 15443
Set signal latency stall time: 6
Reenqueueing errored packet 351818 at time 9282
Additional hops: 15456
Set signal latency stall time: 26
Additional hops: 15460
Set signal latency stall time: 8
Reenqueueing errored packet 233329 at time 9289
Additional hops: 15466
Set signal latency stall time: 12
Reenqueueing errored packet 334551 at time 9294
Additional hops: 15476
Set signal latency stall time: 20
Reenqueueing errored packet 300303 at time 9302
Additional hops: 15482
Set signal latency stall time: 12
Reenqueueing errored packet 249743 at time 9310
Additional hops: 15485
Set signal latency stall time: 6
Reenqueueing errored packet 335814 at time 9319
Reenqueueing errored packet 252770 at time 9321
Additional hops: 15492
Set signal latency stall time: 14
Additional hops: 15501
Set signal latency stall time: 18
Reenqueueing errored packet 312716 at time 9322
Additional hops: 15509
Set signal latency stall time: 16
Additional hops: 15510
Set signal latency stall time: 2
Reenqueueing errored packet 353829 at time 9330
Additional hops: 15515
Set signal latency stall time: 10
Additional hops: 15525
Set signal latency stall time: 20
Reenqueueing errored packet 314661 at time 9336
Reenqueueing errored packet 272322 at time 9340
Reenqueueing errored packet 257533 at time 9341
Additional hops: 15531
Set signal latency stall time: 12
Reenqueueing errored packet 335979 at time 9343
Additional hops: 15536
Set signal latency stall time: 10
Additional hops: 15546
Set signal latency stall time: 20
Additional hops: 15553
Set signal latency stall time: 14
Reenqueueing errored packet 339881 at time 9355
Reenqueueing errored packet 257205 at time 9356
Additional hops: 15560
Set signal latency stall time: 14
Reenqueueing errored packet 317317 at time 9362
Additional hops: 15566
Set signal latency stall time: 12
Additional hops: 15574
Set signal latency stall time: 16
Additional hops: 15582
Set signal latency stall time: 16
Reenqueueing errored packet 313141 at time 9369
Reenqueueing errored packet 326758 at time 9372
Additional hops: 15588
Set signal latency stall time: 12
Reenqueueing errored packet 257495 at time 9373
Additional hops: 15593
Set signal latency stall time: 10
Additional hops: 15599
Set signal latency stall time: 12
Reenqueueing errored packet 296234 at time 9385
Reenqueueing errored packet 337517 at time 9388
Reenqueueing errored packet 337673 at time 9395
Additional hops: 15608
Set signal latency stall time: 18
Additional hops: 15614
Set signal latency stall time: 12
Additional hops: 15616
Set signal latency stall time: 4
Additional hops: 15620
Set signal latency stall time: 8
Reenqueueing errored packet 357643 at time 9425
Additional hops: 15625
Set signal latency stall time: 10
Reenqueueing errored packet 300912 at time 9430
Reenqueueing errored packet 282303 at time 9431
Reenqueueing errored packet 318211 at time 9431
Additional hops: 15633
Set signal latency stall time: 16
Additional hops: 15642
Set signal latency stall time: 18
Reenqueueing errored packet 307923 at time 9438
Additional hops: 15650
Set signal latency stall time: 16
Additional hops: 15662
Set signal latency stall time: 24
Additional hops: 15673
Set signal latency stall time: 22
Reenqueueing errored packet 325370 at time 9450
Additional hops: 15683
Set signal latency stall time: 20
Additional hops: 15692
Set signal latency stall time: 18
Additional hops: 15698
Set signal latency stall time: 12
Additional hops: 15709
Set signal latency stall time: 22
Additional hops: 15720
Set signal latency stall time: 22
Additional hops: 15726
Set signal latency stall time: 12
Reenqueueing errored packet 303458 at time 9470
Reenqueueing errored packet 316388 at time 9471
Reenqueueing errored packet 326297 at time 9475
Reenqueueing errored packet 250236 at time 9479
Additional hops: 15731
Set signal latency stall time: 10
Reenqueueing errored packet 324689 at time 9481
Additional hops: 15742
Set signal latency stall time: 22
Additional hops: 15748
Set signal latency stall time: 12
Reenqueueing errored packet 263898 at time 9487
Reenqueueing errored packet 321270 at time 9490
Reenqueueing errored packet 341725 at time 9497
Additional hops: 15756
Set signal latency stall time: 16
Additional hops: 15765
Set signal latency stall time: 18
Additional hops: 15772
Set signal latency stall time: 14
Additional hops: 15775
Set signal latency stall time: 6
Reenqueueing errored packet 265783 at time 9505
Additional hops: 15780
Set signal latency stall time: 10
Additional hops: 15787
Set signal latency stall time: 14
Additional hops: 15792
Set signal latency stall time: 10
Additional hops: 15798
Set signal latency stall time: 12
Reenqueueing errored packet 360660 at time 9511
Reenqueueing errored packet 328896 at time 9514
Additional hops: 15806
Set signal latency stall time: 16
Additional hops: 15809
Set signal latency stall time: 6
Reenqueueing errored packet 301680 at time 9517
Reenqueueing errored packet 321626 at time 9517
Reenqueueing errored packet 311560 at time 9519
Reenqueueing errored packet 310439 at time 9520
Reenqueueing errored packet 309469 at time 9521
Additional hops: 15815
Set signal latency stall time: 12
Reenqueueing errored packet 360700 at time 9523
Reenqueueing errored packet 324525 at time 9523
Additional hops: 15824
Set signal latency stall time: 18
Additional hops: 15829
Set signal latency stall time: 10
Additional hops: 15834
Set signal latency stall time: 10
Reenqueueing errored packet 342722 at time 9532
Reenqueueing errored packet 342608 at time 9534
Additional hops: 15840
Set signal latency stall time: 12
Additional hops: 15848
Set signal latency stall time: 16
Additional hops: 15855
Set signal latency stall time: 14
Additional hops: 15863
Set signal latency stall time: 16
Additional hops: 15867
Set signal latency stall time: 8
Reenqueueing errored packet 272467 at time 9538
Reenqueueing errored packet 343347 at time 9540
Reenqueueing errored packet 302673 at time 9542
Additional hops: 15873
Set signal latency stall time: 12
Reenqueueing errored packet 288754 at time 9546
Additional hops: 15885
Set signal latency stall time: 24
Reenqueueing errored packet 348592 at time 9547
Reenqueueing errored packet 300506 at time 9550
Additional hops: 15891
Set signal latency stall time: 12
Reenqueueing errored packet 326352 at time 9551
Reenqueueing errored packet 304702 at time 9553
Additional hops: 15894
Set signal latency stall time: 6
Additional hops: 15902
Set signal latency stall time: 16
Reenqueueing errored packet 361854 at time 9560
Reenqueueing errored packet 361397 at time 9563
Additional hops: 15907
Set signal latency stall time: 10
Reenqueueing errored packet 235300 at time 9571
Reenqueueing errored packet 329068 at time 9573
Additional hops: 15910
Set signal latency stall time: 6
Additional hops: 15917
Set signal latency stall time: 14
Reenqueueing errored packet 268476 at time 9581
Reenqueueing errored packet 341848 at time 9583
Additional hops: 15923
Set signal latency stall time: 12
Additional hops: 15934
Set signal latency stall time: 22
Reenqueueing errored packet 324529 at time 9591
Additional hops: 15937
Set signal latency stall time: 6
Reenqueueing errored packet 345651 at time 9601
Reenqueueing errored packet 295397 at time 9603
Additional hops: 15944
Set signal latency stall time: 14
Additional hops: 15949
Set signal latency stall time: 10
Reenqueueing errored packet 252259 at time 9611
Additional hops: 15959
Set signal latency stall time: 20
Additional hops: 15967
Set signal latency stall time: 16
Reenqueueing errored packet 298780 at time 9618
Reenqueueing errored packet 347338 at time 9620
Additional hops: 15974
Set signal latency stall time: 14
Additional hops: 15977
Set signal latency stall time: 6
Reenqueueing errored packet 275543 at time 9630
Additional hops: 15983
Set signal latency stall time: 12
Reenqueueing errored packet 363564 at time 9631
Reenqueueing errored packet 334786 at time 9632
Additional hops: 15989
Set signal latency stall time: 12
Additional hops: 15994
Set signal latency stall time: 10
Reenqueueing errored packet 337842 at time 9643
Additional hops: 16003
Set signal latency stall time: 18
Additional hops: 16011
Set signal latency stall time: 16
Reenqueueing errored packet 325610 at time 9650
Additional hops: 16018
Set signal latency stall time: 14
Reenqueueing errored packet 335643 at time 9664
Additional hops: 16025
Set signal latency stall time: 14
Reenqueueing errored packet 325864 at time 9670
Additional hops: 16035
Set signal latency stall time: 20
Additional hops: 16039
Set signal latency stall time: 8
Additional hops: 16044
Set signal latency stall time: 10
Additional hops: 16056
Set signal latency stall time: 24
Additional hops: 16076
Set signal latency stall time: 40
Additional hops: 16083
Set signal latency stall time: 14
Reenqueueing errored packet 333037 at time 9680
Additional hops: 16093
Set signal latency stall time: 20
Reenqueueing errored packet 327000 at time 9685
Additional hops: 16101
Set signal latency stall time: 16
Reenqueueing errored packet 243494 at time 9691
Reenqueueing errored packet 356682 at time 9694
Additional hops: 16107
Set signal latency stall time: 12
Reenqueueing errored packet 261281 at time 9701
Additional hops: 16114
Set signal latency stall time: 14
Reenqueueing errored packet 284309 at time 9703
Additional hops: 16120
Set signal latency stall time: 12
Additional hops: 16127
Set signal latency stall time: 14
Additional hops: 16138
Set signal latency stall time: 22
Additional hops: 16147
Set signal latency stall time: 18
Reenqueueing errored packet 338697 at time 9712
Reenqueueing errored packet 332454 at time 9716
Reenqueueing errored packet 312849 at time 9716
Reenqueueing errored packet 337575 at time 9719
Reenqueueing errored packet 289386 at time 9720
Additional hops: 16152
Set signal latency stall time: 10
Additional hops: 16161
Set signal latency stall time: 18
Additional hops: 16171
Set signal latency stall time: 20
Additional hops: 16176
Set signal latency stall time: 10
Additional hops: 16185
Set signal latency stall time: 18
Reenqueueing errored packet 330884 at time 9727
Additional hops: 16191
Set signal latency stall time: 12
Reenqueueing errored packet 295459 at time 9728
Additional hops: 16196
Set signal latency stall time: 10
Reenqueueing errored packet 367817 at time 9731
Reenqueueing errored packet 350060 at time 9735
Reenqueueing errored packet 349719 at time 9740
Reenqueueing errored packet 329607 at time 9740
Reenqueueing errored packet 350288 at time 9741
Reenqueueing errored packet 301572 at time 9743
Additional hops: 16201
Set signal latency stall time: 10
Additional hops: 16205
Set signal latency stall time: 8
Additional hops: 16213
Set signal latency stall time: 16
Reenqueueing errored packet 333358 at time 9752
Additional hops: 16220
Set signal latency stall time: 14
Reenqueueing errored packet 368523 at time 9754
Additional hops: 16226
Set signal latency stall time: 12
Additional hops: 16229
Set signal latency stall time: 6
Additional hops: 16232
Set signal latency stall time: 6
Reenqueueing errored packet 309858 at time 9764
Reenqueueing errored packet 336608 at time 9767
Reenqueueing errored packet 276985 at time 9767
Additional hops: 16239
Set signal latency stall time: 14
Additional hops: 16245
Set signal latency stall time: 12
Reenqueueing errored packet 351523 at time 9782
Reenqueueing errored packet 271215 at time 9783
Additional hops: 16250
Set signal latency stall time: 10
Additional hops: 16259
Set signal latency stall time: 18
Additional hops: 16271
Set signal latency stall time: 24
Reenqueueing errored packet 331657 at time 9795
Additional hops: 16278
Set signal latency stall time: 14
Reenqueueing errored packet 334164 at time 9808
Reenqueueing errored packet 267667 at time 9814
Additional hops: 16287
Set signal latency stall time: 18
Reenqueueing errored packet 352241 at time 9815
Additional hops: 16301
Set signal latency stall time: 28
Additional hops: 16313
Set signal latency stall time: 24
Additional hops: 16317
Set signal latency stall time: 8
Additional hops: 16325
Set signal latency stall time: 16
Additional hops: 16333
Set signal latency stall time: 16
Reenqueueing errored packet 353377 at time 9826
Additional hops: 16337
Set signal latency stall time: 8
Additional hops: 16344
Set signal latency stall time: 14
Reenqueueing errored packet 343113 at time 9833
Additional hops: 16353
Set signal latency stall time: 18
Reenqueueing errored packet 323210 at time 9834
Additional hops: 16356
Set signal latency stall time: 6
Reenqueueing errored packet 371515 at time 9838
Reenqueueing errored packet 353484 at time 9839
Reenqueueing errored packet 269974 at time 9842
Reenqueueing errored packet 254898 at time 9845
Reenqueueing errored packet 323654 at time 9847
Additional hops: 16364
Set signal latency stall time: 16
Reenqueueing errored packet 340528 at time 9852
Additional hops: 16367
Set signal latency stall time: 6
Additional hops: 16376
Set signal latency stall time: 18
Additional hops: 16383
Set signal latency stall time: 14
Reenqueueing errored packet 346393 at time 9859
Additional hops: 16393
Set signal latency stall time: 20
Additional hops: 16404
Set signal latency stall time: 22
Reenqueueing errored packet 345786 at time 9867
Additional hops: 16410
Set signal latency stall time: 12
Additional hops: 16416
Set signal latency stall time: 12
Additional hops: 16423
Set signal latency stall time: 14
Reenqueueing errored packet 319763 at time 9871
Reenqueueing errored packet 274731 at time 9874
Reenqueueing errored packet 266589 at time 9880
Reenqueueing errored packet 333609 at time 9881
Reenqueueing errored packet 254577 at time 9882
Reenqueueing errored packet 321447 at time 9883
Additional hops: 16429
Set signal latency stall time: 12
Reenqueueing errored packet 355347 at time 9885
Additional hops: 16436
Set signal latency stall time: 14
Additional hops: 16446
Set signal latency stall time: 20
Reenqueueing errored packet 320619 at time 9897
Additional hops: 16454
Set signal latency stall time: 16
Reenqueueing errored packet 324167 at time 9903
Additional hops: 16463
Set signal latency stall time: 18
Reenqueueing errored packet 336979 at time 9911
Additional hops: 16470
Set signal latency stall time: 14
Additional hops: 16481
Set signal latency stall time: 22
Reenqueueing errored packet 284017 at time 9926
Additional hops: 16487
Set signal latency stall time: 12
Additional hops: 16493
Set signal latency stall time: 12
Reenqueueing errored packet 357624 at time 9956
Additional hops: 16501
Set signal latency stall time: 16
Reenqueueing errored packet 364786 at time 9960
Additional hops: 16503
Set signal latency stall time: 4
Additional hops: 16508
Set signal latency stall time: 10
Additional hops: 16515
Set signal latency stall time: 14
Additional hops: 16519
Set signal latency stall time: 8
Additional hops: 16523
Set signal latency stall time: 8
Additional hops: 16525
Set signal latency stall time: 4
Additional hops: 16531
Set signal latency stall time: 12
Reenqueueing errored packet 336877 at time 9972
Reenqueueing errored packet 376952 at time 9973
Additional hops: 16536
Set signal latency stall time: 10
Reenqueueing errored packet 340329 at time 9974
Reenqueueing errored packet 364804 at time 9975
Reenqueueing errored packet 376611 at time 9975
Reenqueueing errored packet 317046 at time 9980
Additional hops: 16543
Set signal latency stall time: 14
Reenqueueing errored packet 376139 at time 9984
Reenqueueing errored packet 338281 at time 9984
Additional hops: 16551
Set signal latency stall time: 16
Additional hops: 16556
Set signal latency stall time: 10
Additional hops: 16564
Set signal latency stall time: 16
Reenqueueing errored packet 342356 at time 9995
Class 0:
Packet latency average = 683.391
	minimum = 5
	maximum = 6159
Network latency average = 679.506
	minimum = 5
	maximum = 3652
Slowest packet = 737
Flit latency average = 679.506
	minimum = 5
	maximum = 3652
Slowest flit = 241808
Fragmentation average = 0
	minimum = 0
	maximum = 0
Injected packet rate average = 0.595045
	minimum = 0.5578 (at node 41)
	maximum = 0.6192 (at node 24)
Accepted packet rate average = 0.510367
	minimum = 0.493 (at node 36)
	maximum = 0.5285 (at node 14)
Injected flit rate average = 0.595045
	minimum = 0.5578 (at node 41)
	maximum = 0.6192 (at node 24)
Accepted flit rate average= 0.510367
	minimum = 0.493 (at node 36)
	maximum = 0.5285 (at node 14)
Injected packet length average = 1
Accepted packet length average = 1
Total in-flight flits = 54253 (0 measured)
latency change    = 1
throughput change = 1
Average latency for class 0 exceeded 500 cycles. Aborting simulation.
Too many sample periods needed to converge
Simulation unstable, ending ...
Total run time 58.5383
