BEGIN Configuration File: examples/ecc_mesh88_config_1_0.010_packet_5
// $Id$

// Copyright (c) 2007-2015, Trustees of The Leland Stanford Junior University
// All rights reserved.
//
// Redistribution and use in source and binary forms, with or without
// modification, are permitted provided that the following conditions are met:
//
// Redistributions of source code must retain the above copyright notice, this
// list of conditions and the following disclaimer.
// Redistributions in binary form must reproduce the above copyright notice,
// this list of conditions and the following disclaimer in the documentation
// and/or other materials provided with the distribution.
//
// THIS SOFTWARE IS PROVIDED BY THE COPYRIGHT HOLDERS AND CONTRIBUTORS "AS IS"
// AND ANY EXPRESS OR IMPLIED WARRANTIES, INCLUDING, BUT NOT LIMITED TO, THE
// IMPLIED WARRANTIES OF MERCHANTABILITY AND FITNESS FOR A PARTICULAR PURPOSE
// ARE DISCLAIMED. IN NO EVENT SHALL THE COPYRIGHT OWNER OR CONTRIBUTORS BE
// LIABLE FOR ANY DIRECT, INDIRECT, INCIDENTAL, SPECIAL, EXEMPLARY, OR
// CONSEQUENTIAL DAMAGES (INCLUDING, BUT NOT LIMITED TO, PROCUREMENT OF
// SUBSTITUTE GOODS OR SERVICES; LOSS OF USE, DATA, OR PROFITS; OR BUSINESS
// INTERRUPTION) HOWEVER CAUSED AND ON ANY THEORY OF LIABILITY, WHETHER IN
// CONTRACT, STRICT LIABILITY, OR TORT (INCLUDING NEGLIGENCE OR OTHERWISE)
// ARISING IN ANY WAY OUT OF THE USE OF THIS SOFTWARE, EVEN IF ADVISED OF THE
// POSSIBILITY OF SUCH DAMAGE.

// Dragonfly
//




vc_buf_size = 256;


wait_for_tail_credit = 0;

//
// Router architecture
//
vc_allocator = separable_input_first; 
sw_allocator = separable_input_first;
alloc_iters  = 1;

credit_delay   = 2;
routing_delay  = 0;
vc_alloc_delay = 1;
sw_alloc_delay = 1;
st_final_delay = 1;

input_speedup     = 1;
output_speedup    = 1;
internal_speedup  = 2.0;


warmup_periods = 3;
sim_count          = 1;

sample_period  = 10000;  


routing_function = dor;
num_vcs     = 2;

priority = none;
traffic       = uniform; 

injection_rate = 0.01;
packet_size = 1;
injection_rate_uses_flits = 1;

topology = mesh;

k  = 8;
n  = 2;

fer = 5;
ecc = link;

watch_out=-;
//watch_file = watch.txt;

ecc = packet;

stats_out = examples/ecc_mesh88_config_1_0.010_packet_5.m;

END Configuration File: examples/ecc_mesh88_config_1_0.010_packet_5
Additional hops: 11
Set signal latency stall time: 22
Reenqueueing errored packet 4228 at time 6773
Class 0:
Packet latency average = 20.7615
	minimum = 5
	maximum = 93
Network latency average = 20.7523
	minimum = 5
	maximum = 47
Slowest packet = 392
Flit latency average = 20.7523
	minimum = 5
	maximum = 47
Slowest flit = 392
Fragmentation average = 0
	minimum = 0
	maximum = 0
Injected packet rate average = 0.00992031
	minimum = 0.0073 (at node 1)
	maximum = 0.012 (at node 46)
Accepted packet rate average = 0.0099
	minimum = 0.008 (at node 10)
	maximum = 0.0121 (at node 34)
Injected flit rate average = 0.00992031
	minimum = 0.0073 (at node 1)
	maximum = 0.012 (at node 46)
Accepted flit rate average= 0.0099
	minimum = 0.008 (at node 10)
	maximum = 0.0121 (at node 34)
Injected packet length average = 1
Accepted packet length average = 1
Total in-flight flits = 13 (0 measured)
latency change    = 1
throughput change = 1
Class 0:
Packet latency average = 20.7727
	minimum = 5
	maximum = 93
Network latency average = 20.7681
	minimum = 5
	maximum = 47
Slowest packet = 392
Flit latency average = 20.7681
	minimum = 5
	maximum = 47
Slowest flit = 392
Fragmentation average = 0
	minimum = 0
	maximum = 0
Injected packet rate average = 0.00998516
	minimum = 0.00805 (at node 1)
	maximum = 0.012 (at node 21)
Accepted packet rate average = 0.00997344
	minimum = 0.00825 (at node 36)
	maximum = 0.0113 (at node 14)
Injected flit rate average = 0.00998516
	minimum = 0.00805 (at node 1)
	maximum = 0.012 (at node 21)
Accepted flit rate average= 0.00997344
	minimum = 0.00825 (at node 36)
	maximum = 0.0113 (at node 14)
Injected packet length average = 1
Accepted packet length average = 1
Total in-flight flits = 15 (0 measured)
latency change    = 0.000538005
throughput change = 0.00736331
Class 0:
Packet latency average = 20.8059
	minimum = 5
	maximum = 47
Network latency average = 20.8059
	minimum = 5
	maximum = 47
Slowest packet = 12936
Flit latency average = 20.8059
	minimum = 5
	maximum = 47
Slowest flit = 12936
Fragmentation average = 0
	minimum = 0
	maximum = 0
Injected packet rate average = 0.0101063
	minimum = 0.0073 (at node 33)
	maximum = 0.0119 (at node 15)
Accepted packet rate average = 0.0101125
	minimum = 0.0082 (at node 15)
	maximum = 0.0123 (at node 10)
Injected flit rate average = 0.0101063
	minimum = 0.0073 (at node 33)
	maximum = 0.0119 (at node 15)
Accepted flit rate average= 0.0101125
	minimum = 0.0082 (at node 15)
	maximum = 0.0123 (at node 10)
Injected packet length average = 1
Accepted packet length average = 1
Total in-flight flits = 11 (0 measured)
latency change    = 0.00159924
throughput change = 0.0137515
Warmed up ...Time used is 30000 cycles
Class 0:
Packet latency average = 20.8337
	minimum = 5
	maximum = 47
Network latency average = 20.8337
	minimum = 5
	maximum = 47
Slowest packet = 21493
Flit latency average = 20.8468
	minimum = 5
	maximum = 47
Slowest flit = 21493
Fragmentation average = 0
	minimum = 0
	maximum = 0
Injected packet rate average = 0.0100047
	minimum = 0.0074 (at node 9)
	maximum = 0.0123 (at node 13)
Accepted packet rate average = 0.00999375
	minimum = 0.0079 (at node 43)
	maximum = 0.0119 (at node 10)
Injected flit rate average = 0.0100047
	minimum = 0.0074 (at node 9)
	maximum = 0.0123 (at node 13)
Accepted flit rate average= 0.00999375
	minimum = 0.0079 (at node 43)
	maximum = 0.0119 (at node 10)
Injected packet length average = 1
Accepted packet length average = 1
Total in-flight flits = 18 (18 measured)
latency change    = 0.00133147
throughput change = 0.0118824
Class 0:
Packet latency average = 20.7438
	minimum = 5
	maximum = 47
Network latency average = 20.7438
	minimum = 5
	maximum = 47
Slowest packet = 21493
Flit latency average = 20.7504
	minimum = 5
	maximum = 47
Slowest flit = 21493
Fragmentation average = 0
	minimum = 0
	maximum = 0
Injected packet rate average = 0.0100039
	minimum = 0.00865 (at node 43)
	maximum = 0.0117 (at node 13)
Accepted packet rate average = 0.0100047
	minimum = 0.00845 (at node 17)
	maximum = 0.01125 (at node 8)
Injected flit rate average = 0.0100039
	minimum = 0.00865 (at node 43)
	maximum = 0.0117 (at node 13)
Accepted flit rate average= 0.0100047
	minimum = 0.00845 (at node 17)
	maximum = 0.01125 (at node 8)
Injected packet length average = 1
Accepted packet length average = 1
Total in-flight flits = 10 (10 measured)
latency change    = 0.00433221
throughput change = 0.00109324
Class 0:
Packet latency average = 20.7471
	minimum = 5
	maximum = 48
Network latency average = 20.7471
	minimum = 5
	maximum = 48
Slowest packet = 36466
Flit latency average = 20.7515
	minimum = 5
	maximum = 48
Slowest flit = 36466
Fragmentation average = 0
	minimum = 0
	maximum = 0
Injected packet rate average = 0.0100495
	minimum = 0.0088 (at node 15)
	maximum = 0.0118333 (at node 13)
Accepted packet rate average = 0.010049
	minimum = 0.0087 (at node 17)
	maximum = 0.0111667 (at node 10)
Injected flit rate average = 0.0100495
	minimum = 0.0088 (at node 15)
	maximum = 0.0118333 (at node 13)
Accepted flit rate average= 0.010049
	minimum = 0.0087 (at node 17)
	maximum = 0.0111667 (at node 10)
Injected packet length average = 1
Accepted packet length average = 1
Total in-flight flits = 12 (12 measured)
latency change    = 0.000157938
throughput change = 0.00440551
Draining all recorded packets ...
Draining remaining packets ...
Time taken is 60056 cycles
====== Overall Traffic Statistics ======
====== Traffic class 0 ======
Packet latency average = 20.7505 (1 samples)
	minimum = 5 (1 samples)
	maximum = 48 (1 samples)
Network latency average = 20.7505 (1 samples)
	minimum = 5 (1 samples)
	maximum = 48 (1 samples)
Flit latency average = 20.7534 (1 samples)
	minimum = 5 (1 samples)
	maximum = 48 (1 samples)
Fragmentation average = 0 (1 samples)
	minimum = 0 (1 samples)
	maximum = 0 (1 samples)
Injected packet rate average = 0.0100495 (1 samples)
	minimum = 0.0088 (1 samples)
	maximum = 0.0118333 (1 samples)
Accepted packet rate average = 0.010049 (1 samples)
	minimum = 0.0087 (1 samples)
	maximum = 0.0111667 (1 samples)
Injected flit rate average = 0.0100495 (1 samples)
	minimum = 0.0088 (1 samples)
	maximum = 0.0118333 (1 samples)
Accepted flit rate average = 0.010049 (1 samples)
	minimum = 0.0087 (1 samples)
	maximum = 0.0111667 (1 samples)
Injected packet size average = 1 (1 samples)
Accepted packet size average = 1 (1 samples)
Hops average = 6.24359 (1 samples)
Total run time 10.3804
