BEGIN Configuration File: examples/ecc_mesh88_config_1_0.950_packet_4
// $Id$

// Copyright (c) 2007-2015, Trustees of The Leland Stanford Junior University
// All rights reserved.
//
// Redistribution and use in source and binary forms, with or without
// modification, are permitted provided that the following conditions are met:
//
// Redistributions of source code must retain the above copyright notice, this
// list of conditions and the following disclaimer.
// Redistributions in binary form must reproduce the above copyright notice,
// this list of conditions and the following disclaimer in the documentation
// and/or other materials provided with the distribution.
//
// THIS SOFTWARE IS PROVIDED BY THE COPYRIGHT HOLDERS AND CONTRIBUTORS "AS IS"
// AND ANY EXPRESS OR IMPLIED WARRANTIES, INCLUDING, BUT NOT LIMITED TO, THE
// IMPLIED WARRANTIES OF MERCHANTABILITY AND FITNESS FOR A PARTICULAR PURPOSE
// ARE DISCLAIMED. IN NO EVENT SHALL THE COPYRIGHT OWNER OR CONTRIBUTORS BE
// LIABLE FOR ANY DIRECT, INDIRECT, INCIDENTAL, SPECIAL, EXEMPLARY, OR
// CONSEQUENTIAL DAMAGES (INCLUDING, BUT NOT LIMITED TO, PROCUREMENT OF
// SUBSTITUTE GOODS OR SERVICES; LOSS OF USE, DATA, OR PROFITS; OR BUSINESS
// INTERRUPTION) HOWEVER CAUSED AND ON ANY THEORY OF LIABILITY, WHETHER IN
// CONTRACT, STRICT LIABILITY, OR TORT (INCLUDING NEGLIGENCE OR OTHERWISE)
// ARISING IN ANY WAY OUT OF THE USE OF THIS SOFTWARE, EVEN IF ADVISED OF THE
// POSSIBILITY OF SUCH DAMAGE.

// Dragonfly
//




vc_buf_size = 256;


wait_for_tail_credit = 0;

//
// Router architecture
//
vc_allocator = separable_input_first; 
sw_allocator = separable_input_first;
alloc_iters  = 1;

credit_delay   = 2;
routing_delay  = 0;
vc_alloc_delay = 1;
sw_alloc_delay = 1;
st_final_delay = 1;

input_speedup     = 1;
output_speedup    = 1;
internal_speedup  = 2.0;


warmup_periods = 3;
sim_count          = 1;

sample_period  = 10000;  


routing_function = dor;
num_vcs     = 2;

priority = none;
traffic       = uniform; 

injection_rate = 0.95;
packet_size = 1;
injection_rate_uses_flits = 1;

topology = mesh;

k  = 8;
n  = 2;

fer = 4;
ecc = link;

watch_out=-;
//watch_file = watch.txt;

ecc = packet;

stats_out = examples/ecc_mesh88_config_1_0.950_packet_4.m;

END Configuration File: examples/ecc_mesh88_config_1_0.950_packet_4
Additional hops: 10
Set signal latency stall time: 20
Additional hops: 15
Set signal latency stall time: 10
Reenqueueing errored packet 13 at time 59
Reenqueueing errored packet 1929 at time 69
Additional hops: 23
Set signal latency stall time: 16
Reenqueueing errored packet 2836 at time 119
Additional hops: 30
Set signal latency stall time: 14
Reenqueueing errored packet 4714 at time 144
Additional hops: 33
Set signal latency stall time: 6
Reenqueueing errored packet 7762 at time 155
Additional hops: 38
Set signal latency stall time: 10
Additional hops: 43
Set signal latency stall time: 10
Reenqueueing errored packet 11955 at time 260
Reenqueueing errored packet 12271 at time 267
Additional hops: 52
Set signal latency stall time: 18
Reenqueueing errored packet 9281 at time 297
Additional hops: 58
Set signal latency stall time: 12
Reenqueueing errored packet 14135 at time 319
Additional hops: 63
Set signal latency stall time: 10
Reenqueueing errored packet 17110 at time 351
Additional hops: 71
Set signal latency stall time: 16
Reenqueueing errored packet 7266 at time 371
Additional hops: 78
Set signal latency stall time: 14
Reenqueueing errored packet 13388 at time 463
Additional hops: 87
Set signal latency stall time: 18
Additional hops: 90
Set signal latency stall time: 6
Reenqueueing errored packet 36701 at time 679
Reenqueueing errored packet 12615 at time 687
Additional hops: 102
Set signal latency stall time: 24
Reenqueueing errored packet 10243 at time 795
Additional hops: 110
Set signal latency stall time: 16
Reenqueueing errored packet 34750 at time 827
Additional hops: 113
Set signal latency stall time: 6
Reenqueueing errored packet 50969 at time 856
Additional hops: 120
Set signal latency stall time: 14
Additional hops: 125
Set signal latency stall time: 10
Reenqueueing errored packet 31391 at time 883
Reenqueueing errored packet 19797 at time 884
Additional hops: 132
Set signal latency stall time: 14
Additional hops: 138
Set signal latency stall time: 12
Reenqueueing errored packet 20274 at time 1035
Reenqueueing errored packet 39149 at time 1035
Additional hops: 142
Set signal latency stall time: 8
Reenqueueing errored packet 57901 at time 1096
Additional hops: 143
Set signal latency stall time: 2
Reenqueueing errored packet 68863 at time 1139
Additional hops: 150
Set signal latency stall time: 14
Reenqueueing errored packet 47381 at time 1160
Additional hops: 160
Set signal latency stall time: 20
Reenqueueing errored packet 48752 at time 1231
Additional hops: 168
Set signal latency stall time: 16
Reenqueueing errored packet 26503 at time 1288
Additional hops: 173
Set signal latency stall time: 10
Reenqueueing errored packet 35402 at time 1303
Additional hops: 182
Set signal latency stall time: 18
Reenqueueing errored packet 23013 at time 1334
Additional hops: 187
Set signal latency stall time: 10
Reenqueueing errored packet 65389 at time 1420
Additional hops: 196
Set signal latency stall time: 18
Reenqueueing errored packet 38285 at time 1530
Additional hops: 199
Set signal latency stall time: 6
Reenqueueing errored packet 89843 at time 1540
Additional hops: 206
Set signal latency stall time: 14
Reenqueueing errored packet 62919 at time 1570
Additional hops: 214
Set signal latency stall time: 16
Reenqueueing errored packet 65443 at time 1588
Additional hops: 223
Set signal latency stall time: 18
Reenqueueing errored packet 39411 at time 1624
Additional hops: 226
Set signal latency stall time: 6
Reenqueueing errored packet 100466 at time 1671
Additional hops: 238
Set signal latency stall time: 24
Reenqueueing errored packet 24763 at time 1756
Additional hops: 240
Set signal latency stall time: 4
Reenqueueing errored packet 97580 at time 1765
Additional hops: 243
Set signal latency stall time: 6
Reenqueueing errored packet 103402 at time 1838
Additional hops: 249
Set signal latency stall time: 12
Reenqueueing errored packet 97459 at time 2048
Additional hops: 251
Set signal latency stall time: 4
Reenqueueing errored packet 125445 at time 2079
Additional hops: 255
Set signal latency stall time: 8
Reenqueueing errored packet 125428 at time 2102
Additional hops: 266
Set signal latency stall time: 22
Reenqueueing errored packet 34189 at time 2147
Additional hops: 274
Set signal latency stall time: 16
Additional hops: 285
Set signal latency stall time: 22
Reenqueueing errored packet 89153 at time 2209
Reenqueueing errored packet 47534 at time 2230
Additional hops: 294
Set signal latency stall time: 18
Reenqueueing errored packet 96035 at time 2319
Additional hops: 301
Set signal latency stall time: 14
Additional hops: 309
Set signal latency stall time: 16
Reenqueueing errored packet 127123 at time 2364
Reenqueueing errored packet 107904 at time 2368
Additional hops: 315
Set signal latency stall time: 12
Additional hops: 322
Set signal latency stall time: 14
Reenqueueing errored packet 132559 at time 2482
Additional hops: 331
Set signal latency stall time: 18
Reenqueueing errored packet 110696 at time 2596
Additional hops: 340
Set signal latency stall time: 18
Reenqueueing errored packet 102757 at time 2725
Additional hops: 345
Set signal latency stall time: 10
Additional hops: 356
Set signal latency stall time: 22
Reenqueueing errored packet 75524 at time 2909
Reenqueueing errored packet 95301 at time 2928
Additional hops: 366
Set signal latency stall time: 20
Additional hops: 369
Set signal latency stall time: 6
Additional hops: 375
Set signal latency stall time: 12
Reenqueueing errored packet 110488 at time 3062
Reenqueueing errored packet 73820 at time 3069
Additional hops: 384
Set signal latency stall time: 18
Additional hops: 394
Set signal latency stall time: 20
Additional hops: 402
Set signal latency stall time: 16
Additional hops: 409
Set signal latency stall time: 14
Additional hops: 416
Set signal latency stall time: 14
Additional hops: 421
Set signal latency stall time: 10
Additional hops: 431
Set signal latency stall time: 20
Additional hops: 434
Set signal latency stall time: 6
Additional hops: 441
Set signal latency stall time: 14
Additional hops: 448
Set signal latency stall time: 14
Additional hops: 453
Set signal latency stall time: 10
Additional hops: 461
Set signal latency stall time: 16
Reenqueueing errored packet 154392 at time 3474
Additional hops: 471
Set signal latency stall time: 20
Reenqueueing errored packet 124154 at time 3523
Additional hops: 475
Set signal latency stall time: 8
Reenqueueing errored packet 182745 at time 3605
Additional hops: 480
Set signal latency stall time: 10
Additional hops: 486
Set signal latency stall time: 12
Additional hops: 493
Set signal latency stall time: 14
Additional hops: 499
Set signal latency stall time: 12
Reenqueueing errored packet 84981 at time 3791
Reenqueueing errored packet 155868 at time 3796
Additional hops: 505
Set signal latency stall time: 12
Reenqueueing errored packet 119259 at time 3851
Additional hops: 513
Set signal latency stall time: 16
Additional hops: 519
Set signal latency stall time: 12
Additional hops: 529
Set signal latency stall time: 20
Additional hops: 541
Set signal latency stall time: 24
Additional hops: 550
Set signal latency stall time: 18
Reenqueueing errored packet 162779 at time 4154
Additional hops: 559
Set signal latency stall time: 18
Additional hops: 569
Set signal latency stall time: 20
Additional hops: 580
Set signal latency stall time: 22
Additional hops: 586
Set signal latency stall time: 12
Reenqueueing errored packet 78845 at time 4349
Reenqueueing errored packet 172503 at time 4353
Reenqueueing errored packet 76902 at time 4354
Additional hops: 595
Set signal latency stall time: 18
Additional hops: 599
Set signal latency stall time: 8
Reenqueueing errored packet 177979 at time 4377
Reenqueueing errored packet 183753 at time 4378
Additional hops: 604
Set signal latency stall time: 10
Additional hops: 610
Set signal latency stall time: 12
Reenqueueing errored packet 204428 at time 4432
Reenqueueing errored packet 186519 at time 4444
Additional hops: 618
Set signal latency stall time: 16
Additional hops: 624
Set signal latency stall time: 12
Reenqueueing errored packet 189672 at time 4574
Additional hops: 633
Set signal latency stall time: 18
Reenqueueing errored packet 81029 at time 4643
Additional hops: 641
Set signal latency stall time: 16
Reenqueueing errored packet 91271 at time 4711
Additional hops: 648
Set signal latency stall time: 14
Reenqueueing errored packet 189033 at time 4751
Additional hops: 657
Set signal latency stall time: 18
Additional hops: 666
Set signal latency stall time: 18
Additional hops: 675
Set signal latency stall time: 18
Reenqueueing errored packet 185163 at time 4844
Additional hops: 681
Set signal latency stall time: 12
Reenqueueing errored packet 183960 at time 4878
Additional hops: 688
Set signal latency stall time: 14
Additional hops: 696
Set signal latency stall time: 16
Reenqueueing errored packet 137843 at time 4927
Additional hops: 704
Set signal latency stall time: 16
Reenqueueing errored packet 207416 at time 4997
Additional hops: 712
Set signal latency stall time: 16
Additional hops: 724
Set signal latency stall time: 24
Reenqueueing errored packet 93395 at time 5018
Additional hops: 731
Set signal latency stall time: 14
Additional hops: 736
Set signal latency stall time: 10
Reenqueueing errored packet 216711 at time 5135
Additional hops: 740
Set signal latency stall time: 8
Reenqueueing errored packet 227887 at time 5167
Additional hops: 745
Set signal latency stall time: 10
Reenqueueing errored packet 227839 at time 5178
Additional hops: 758
Set signal latency stall time: 26
Additional hops: 767
Set signal latency stall time: 18
Reenqueueing errored packet 197152 at time 5323
Additional hops: 770
Set signal latency stall time: 6
Reenqueueing errored packet 195510 at time 5409
Additional hops: 781
Set signal latency stall time: 22
Reenqueueing errored packet 145534 at time 5435
Additional hops: 789
Set signal latency stall time: 16
Reenqueueing errored packet 219513 at time 5526
Additional hops: 797
Set signal latency stall time: 16
Additional hops: 804
Set signal latency stall time: 14
Reenqueueing errored packet 218119 at time 5554
Reenqueueing errored packet 220598 at time 5559
Additional hops: 808
Set signal latency stall time: 8
Additional hops: 819
Set signal latency stall time: 22
Reenqueueing errored packet 91633 at time 5595
Additional hops: 822
Set signal latency stall time: 6
Additional hops: 824
Set signal latency stall time: 4
Reenqueueing errored packet 196825 at time 5677
Additional hops: 836
Set signal latency stall time: 24
Reenqueueing errored packet 96891 at time 5760
Additional hops: 844
Set signal latency stall time: 16
Additional hops: 850
Set signal latency stall time: 12
Additional hops: 857
Set signal latency stall time: 14
Reenqueueing errored packet 197385 at time 5827
Reenqueueing errored packet 211623 at time 5830
Additional hops: 863
Set signal latency stall time: 12
Reenqueueing errored packet 239908 at time 5851
Additional hops: 868
Set signal latency stall time: 10
Additional hops: 876
Set signal latency stall time: 16
Reenqueueing errored packet 232154 at time 5888
Additional hops: 889
Set signal latency stall time: 26
Additional hops: 892
Set signal latency stall time: 6
Reenqueueing errored packet 214166 at time 6078
Additional hops: 901
Set signal latency stall time: 18
Additional hops: 905
Set signal latency stall time: 8
Additional hops: 915
Set signal latency stall time: 20
Reenqueueing errored packet 180307 at time 6165
Reenqueueing errored packet 112442 at time 6170
Additional hops: 922
Set signal latency stall time: 14
Additional hops: 926
Set signal latency stall time: 8
Additional hops: 930
Set signal latency stall time: 8
Reenqueueing errored packet 142763 at time 6203
Reenqueueing errored packet 203409 at time 6208
Additional hops: 937
Set signal latency stall time: 14
Additional hops: 942
Set signal latency stall time: 10
Reenqueueing errored packet 254906 at time 6335
Additional hops: 947
Set signal latency stall time: 10
Additional hops: 952
Set signal latency stall time: 10
Additional hops: 959
Set signal latency stall time: 14
Reenqueueing errored packet 246014 at time 6350
Reenqueueing errored packet 232806 at time 6357
Additional hops: 969
Set signal latency stall time: 20
Reenqueueing errored packet 182134 at time 6381
Additional hops: 981
Set signal latency stall time: 24
Additional hops: 991
Set signal latency stall time: 20
Additional hops: 1000
Set signal latency stall time: 18
Reenqueueing errored packet 158846 at time 6444
Additional hops: 1008
Set signal latency stall time: 16
Additional hops: 1017
Set signal latency stall time: 18
Reenqueueing errored packet 257270 at time 6715
Additional hops: 1019
Set signal latency stall time: 4
Reenqueueing errored packet 270999 at time 6746
Additional hops: 1027
Set signal latency stall time: 16
Additional hops: 1034
Set signal latency stall time: 14
Reenqueueing errored packet 151198 at time 6792
Additional hops: 1041
Set signal latency stall time: 14
Reenqueueing errored packet 267091 at time 6829
Additional hops: 1047
Set signal latency stall time: 12
Reenqueueing errored packet 252847 at time 6874
Additional hops: 1055
Set signal latency stall time: 16
Reenqueueing errored packet 203229 at time 7007
Additional hops: 1062
Set signal latency stall time: 14
Additional hops: 1064
Set signal latency stall time: 4
Additional hops: 1072
Set signal latency stall time: 16
Reenqueueing errored packet 293752 at time 7079
Reenqueueing errored packet 214157 at time 7092
Additional hops: 1081
Set signal latency stall time: 18
Additional hops: 1090
Set signal latency stall time: 18
Reenqueueing errored packet 269492 at time 7128
Reenqueueing errored packet 122836 at time 7134
Additional hops: 1098
Set signal latency stall time: 16
Additional hops: 1103
Set signal latency stall time: 10
Reenqueueing errored packet 274330 at time 7341
Additional hops: 1110
Set signal latency stall time: 14
Reenqueueing errored packet 212565 at time 7474
Additional hops: 1115
Set signal latency stall time: 10
Additional hops: 1124
Set signal latency stall time: 18
Additional hops: 1131
Set signal latency stall time: 14
Reenqueueing errored packet 241316 at time 7606
Additional hops: 1132
Set signal latency stall time: 2
Additional hops: 1139
Set signal latency stall time: 14
Reenqueueing errored packet 139516 at time 7654
Additional hops: 1140
Set signal latency stall time: 2
Additional hops: 1147
Set signal latency stall time: 14
Additional hops: 1153
Set signal latency stall time: 12
Reenqueueing errored packet 234351 at time 7741
Additional hops: 1160
Set signal latency stall time: 14
Additional hops: 1165
Set signal latency stall time: 10
Reenqueueing errored packet 289289 at time 7825
Additional hops: 1171
Set signal latency stall time: 12
Additional hops: 1179
Set signal latency stall time: 16
Reenqueueing errored packet 242237 at time 7953
Additional hops: 1184
Set signal latency stall time: 10
Additional hops: 1189
Set signal latency stall time: 10
Additional hops: 1193
Set signal latency stall time: 8
Reenqueueing errored packet 306962 at time 8050
Additional hops: 1201
Set signal latency stall time: 16
Reenqueueing errored packet 290881 at time 8156
Additional hops: 1208
Set signal latency stall time: 14
Reenqueueing errored packet 248320 at time 8192
Additional hops: 1214
Set signal latency stall time: 12
Reenqueueing errored packet 299916 at time 8315
Additional hops: 1218
Set signal latency stall time: 8
Reenqueueing errored packet 290165 at time 8352
Additional hops: 1228
Set signal latency stall time: 20
Additional hops: 1236
Set signal latency stall time: 16
Additional hops: 1244
Set signal latency stall time: 16
Reenqueueing errored packet 292507 at time 8380
Additional hops: 1251
Set signal latency stall time: 14
Reenqueueing errored packet 293576 at time 8387
Additional hops: 1261
Set signal latency stall time: 20
Reenqueueing errored packet 289898 at time 8400
Reenqueueing errored packet 179494 at time 8410
Additional hops: 1267
Set signal latency stall time: 12
Additional hops: 1273
Set signal latency stall time: 12
Reenqueueing errored packet 289429 at time 8447
Additional hops: 1284
Set signal latency stall time: 22
Additional hops: 1289
Set signal latency stall time: 10
Reenqueueing errored packet 295732 at time 8560
Additional hops: 1295
Set signal latency stall time: 12
Additional hops: 1307
Set signal latency stall time: 24
Additional hops: 1317
Set signal latency stall time: 20
Additional hops: 1321
Set signal latency stall time: 8
Reenqueueing errored packet 151348 at time 8611
Additional hops: 1325
Set signal latency stall time: 8
Reenqueueing errored packet 308959 at time 8641
Additional hops: 1332
Set signal latency stall time: 14
Additional hops: 1340
Set signal latency stall time: 16
Additional hops: 1347
Set signal latency stall time: 14
Reenqueueing errored packet 310585 at time 8725
Reenqueueing errored packet 301215 at time 8727
Additional hops: 1352
Set signal latency stall time: 10
Reenqueueing errored packet 176147 at time 8776
Additional hops: 1361
Set signal latency stall time: 18
Additional hops: 1370
Set signal latency stall time: 18
Additional hops: 1379
Set signal latency stall time: 18
Reenqueueing errored packet 307325 at time 9028
Additional hops: 1390
Set signal latency stall time: 22
Additional hops: 1393
Set signal latency stall time: 6
Additional hops: 1401
Set signal latency stall time: 16
Additional hops: 1409
Set signal latency stall time: 16
Reenqueueing errored packet 332271 at time 9124
Reenqueueing errored packet 300751 at time 9135
Reenqueueing errored packet 337561 at time 9139
Reenqueueing errored packet 315950 at time 9139
Additional hops: 1421
Set signal latency stall time: 24
Additional hops: 1427
Set signal latency stall time: 12
Reenqueueing errored packet 326126 at time 9283
Additional hops: 1434
Set signal latency stall time: 14
Additional hops: 1438
Set signal latency stall time: 8
Reenqueueing errored packet 228594 at time 9300
Reenqueueing errored packet 197254 at time 9303
Additional hops: 1446
Set signal latency stall time: 16
Additional hops: 1451
Set signal latency stall time: 10
Additional hops: 1458
Set signal latency stall time: 14
Reenqueueing errored packet 291124 at time 9335
Reenqueueing errored packet 290672 at time 9344
Additional hops: 1462
Set signal latency stall time: 8
Reenqueueing errored packet 293634 at time 9404
Additional hops: 1464
Set signal latency stall time: 4
Reenqueueing errored packet 338739 at time 9410
Additional hops: 1469
Set signal latency stall time: 10
Reenqueueing errored packet 324033 at time 9434
Additional hops: 1473
Set signal latency stall time: 8
Reenqueueing errored packet 355713 at time 9597
Additional hops: 1481
Set signal latency stall time: 16
Reenqueueing errored packet 261056 at time 9742
Additional hops: 1483
Set signal latency stall time: 4
Reenqueueing errored packet 366589 at time 9753
Additional hops: 1488
Set signal latency stall time: 10
Reenqueueing errored packet 350611 at time 9783
Additional hops: 1494
Set signal latency stall time: 12
Reenqueueing errored packet 309701 at time 9870
Additional hops: 1501
Set signal latency stall time: 14
Additional hops: 1508
Set signal latency stall time: 14
Reenqueueing errored packet 310587 at time 9912
Reenqueueing errored packet 365502 at time 9923
Additional hops: 1513
Set signal latency stall time: 10
Reenqueueing errored packet 357964 at time 9941
Additional hops: 1523
Set signal latency stall time: 20
Additional hops: 1525
Set signal latency stall time: 4
Reenqueueing errored packet 368356 at time 9978
Class 0:
Packet latency average = 1889.84
	minimum = 5
	maximum = 8239
Network latency average = 1559.27
	minimum = 5
	maximum = 7115
Slowest packet = 98257
Flit latency average = 1559.27
	minimum = 5
	maximum = 7115
Slowest flit = 165328
Fragmentation average = 0
	minimum = 0
	maximum = 0
Injected packet rate average = 0.619811
	minimum = 0.422 (at node 14)
	maximum = 0.9053 (at node 60)
Accepted packet rate average = 0.501272
	minimum = 0.4809 (at node 21)
	maximum = 0.5168 (at node 14)
Injected flit rate average = 0.619811
	minimum = 0.422 (at node 14)
	maximum = 0.9053 (at node 60)
Accepted flit rate average= 0.501272
	minimum = 0.4809 (at node 21)
	maximum = 0.5168 (at node 14)
Injected packet length average = 1
Accepted packet length average = 1
Total in-flight flits = 75956 (0 measured)
latency change    = 1
throughput change = 1
Average latency for class 0 exceeded 500 cycles. Aborting simulation.
Too many sample periods needed to converge
Simulation unstable, ending ...
Total run time 60.4356
