BEGIN Configuration File: examples/ecc_mesh88_config_1_0.150_link_5
// $Id$

// Copyright (c) 2007-2015, Trustees of The Leland Stanford Junior University
// All rights reserved.
//
// Redistribution and use in source and binary forms, with or without
// modification, are permitted provided that the following conditions are met:
//
// Redistributions of source code must retain the above copyright notice, this
// list of conditions and the following disclaimer.
// Redistributions in binary form must reproduce the above copyright notice,
// this list of conditions and the following disclaimer in the documentation
// and/or other materials provided with the distribution.
//
// THIS SOFTWARE IS PROVIDED BY THE COPYRIGHT HOLDERS AND CONTRIBUTORS "AS IS"
// AND ANY EXPRESS OR IMPLIED WARRANTIES, INCLUDING, BUT NOT LIMITED TO, THE
// IMPLIED WARRANTIES OF MERCHANTABILITY AND FITNESS FOR A PARTICULAR PURPOSE
// ARE DISCLAIMED. IN NO EVENT SHALL THE COPYRIGHT OWNER OR CONTRIBUTORS BE
// LIABLE FOR ANY DIRECT, INDIRECT, INCIDENTAL, SPECIAL, EXEMPLARY, OR
// CONSEQUENTIAL DAMAGES (INCLUDING, BUT NOT LIMITED TO, PROCUREMENT OF
// SUBSTITUTE GOODS OR SERVICES; LOSS OF USE, DATA, OR PROFITS; OR BUSINESS
// INTERRUPTION) HOWEVER CAUSED AND ON ANY THEORY OF LIABILITY, WHETHER IN
// CONTRACT, STRICT LIABILITY, OR TORT (INCLUDING NEGLIGENCE OR OTHERWISE)
// ARISING IN ANY WAY OUT OF THE USE OF THIS SOFTWARE, EVEN IF ADVISED OF THE
// POSSIBILITY OF SUCH DAMAGE.

// Dragonfly
//




vc_buf_size = 256;


wait_for_tail_credit = 0;

//
// Router architecture
//
vc_allocator = separable_input_first; 
sw_allocator = separable_input_first;
alloc_iters  = 1;

credit_delay   = 2;
routing_delay  = 0;
vc_alloc_delay = 1;
sw_alloc_delay = 1;
st_final_delay = 1;

input_speedup     = 1;
output_speedup    = 1;
internal_speedup  = 2.0;


warmup_periods = 3;
sim_count          = 1;

sample_period  = 10000;  


routing_function = dor;
num_vcs     = 2;

priority = none;
traffic       = uniform; 

injection_rate = 0.15;
packet_size = 1;
injection_rate_uses_flits = 1;

topology = mesh;

k  = 8;
n  = 2;

fer = 5;
ecc = link;

watch_out=-;
//watch_file = watch.txt;

ecc = link;

stats_out = examples/ecc_mesh88_config_1_0.150_link_5.m;

END Configuration File: examples/ecc_mesh88_config_1_0.150_link_5
3
Received nack credit for flit 3991
Requeued flit 3991
3
Received nack credit for flit 10097
Requeued flit 10097
4
Received nack credit for flit 21121
Requeued flit 21121
4
Received nack credit for flit 32915
Requeued flit 32915
1
Received nack credit for flit 56515
Requeued flit 56515
5
Received nack credit for flit 85648
Requeued flit 85648
Class 0:
Packet latency average = 21.1417
	minimum = 5
	maximum = 52
Network latency average = 21.1417
	minimum = 5
	maximum = 52
Slowest packet = 4005
Flit latency average = 21.1417
	minimum = 5
	maximum = 52
Slowest flit = 4005
Fragmentation average = 0
	minimum = 0
	maximum = 0
Injected packet rate average = 0.149994
	minimum = 0.1434 (at node 1)
	maximum = 0.1579 (at node 23)
Accepted packet rate average = 0.149675
	minimum = 0.1413 (at node 52)
	maximum = 0.156 (at node 53)
Injected flit rate average = 0.149994
	minimum = 0.1434 (at node 1)
	maximum = 0.1579 (at node 23)
Accepted flit rate average= 0.149675
	minimum = 0.1413 (at node 52)
	maximum = 0.156 (at node 53)
Injected packet length average = 1
Accepted packet length average = 1
Total in-flight flits = 204 (0 measured)
latency change    = 1
throughput change = 1
5
11
Received nack credit for flit 96667
Requeued flit 96667
Received nack credit for flit 96514
Requeued flit 96514
4
Received nack credit for flit 99477
Requeued flit 99477
4
Received nack credit for flit 101882
Requeued flit 101882
4
Received nack credit for flit 118306
Requeued flit 118306
2
Received nack credit for flit 140082
Requeued flit 140082
2
Received nack credit for flit 154383
Requeued flit 154383
11
Received nack credit for flit 170441
Requeued flit 170441
Class 0:
Packet latency average = 21.1758
	minimum = 5
	maximum = 59
Network latency average = 21.1758
	minimum = 5
	maximum = 59
Slowest packet = 96514
Flit latency average = 21.1758
	minimum = 5
	maximum = 59
Slowest flit = 96514
Fragmentation average = 0
	minimum = 0
	maximum = 0
Injected packet rate average = 0.149562
	minimum = 0.14385 (at node 27)
	maximum = 0.15575 (at node 44)
Accepted packet rate average = 0.149422
	minimum = 0.14415 (at node 33)
	maximum = 0.15605 (at node 53)
Injected flit rate average = 0.149562
	minimum = 0.14385 (at node 27)
	maximum = 0.15575 (at node 44)
Accepted flit rate average= 0.149422
	minimum = 0.14415 (at node 33)
	maximum = 0.15605 (at node 53)
Injected packet length average = 1
Accepted packet length average = 1
Total in-flight flits = 179 (0 measured)
latency change    = 0.00160958
throughput change = 0.00169403
1
Received nack credit for flit 191439
Requeued flit 191439
8
Received nack credit for flit 206599
Requeued flit 206599
4
Received nack credit for flit 244289
Requeued flit 244289
2
Received nack credit for flit 261758
Requeued flit 261758
Class 0:
Packet latency average = 21.1388
	minimum = 5
	maximum = 53
Network latency average = 21.1388
	minimum = 5
	maximum = 53
Slowest packet = 228951
Flit latency average = 21.1388
	minimum = 5
	maximum = 53
Slowest flit = 228951
Fragmentation average = 0
	minimum = 0
	maximum = 0
Injected packet rate average = 0.149734
	minimum = 0.1411 (at node 25)
	maximum = 0.1584 (at node 2)
Accepted packet rate average = 0.149731
	minimum = 0.1396 (at node 21)
	maximum = 0.156 (at node 28)
Injected flit rate average = 0.149734
	minimum = 0.1411 (at node 25)
	maximum = 0.1584 (at node 2)
Accepted flit rate average= 0.149731
	minimum = 0.1396 (at node 21)
	maximum = 0.156 (at node 28)
Injected packet length average = 1
Accepted packet length average = 1
Total in-flight flits = 181 (0 measured)
latency change    = 0.00175116
throughput change = 0.0020662
Warmed up ...Time used is 30000 cycles
1
Received nack credit for flit 307915
Requeued flit 307915
1
Received nack credit for flit 314066
Requeued flit 314066
4
Received nack credit for flit 330321
Requeued flit 330321
7
Received nack credit for flit 335150
Requeued flit 335150
2
Received nack credit for flit 369195
Requeued flit 369195
Class 0:
Packet latency average = 21.1284
	minimum = 5
	maximum = 50
Network latency average = 21.1284
	minimum = 5
	maximum = 50
Slowest packet = 334639
Flit latency average = 21.1332
	minimum = 5
	maximum = 50
Slowest flit = 334639
Fragmentation average = 0
	minimum = 0
	maximum = 0
Injected packet rate average = 0.149983
	minimum = 0.1404 (at node 1)
	maximum = 0.1576 (at node 35)
Accepted packet rate average = 0.149939
	minimum = 0.1439 (at node 1)
	maximum = 0.1617 (at node 52)
Injected flit rate average = 0.149983
	minimum = 0.1404 (at node 1)
	maximum = 0.1576 (at node 35)
Accepted flit rate average= 0.149939
	minimum = 0.1439 (at node 1)
	maximum = 0.1617 (at node 52)
Injected packet length average = 1
Accepted packet length average = 1
Total in-flight flits = 209 (209 measured)
latency change    = 0.000488387
throughput change = 0.00138598
1
4
Received nack credit for flit 400320
Requeued flit 400320
Received nack credit for flit 400316
Requeued flit 400316
5
Received nack credit for flit 417558
Requeued flit 417558
3
Received nack credit for flit 435072
Requeued flit 435072
1
Received nack credit for flit 437481
Requeued flit 437481
4
Received nack credit for flit 458714
Requeued flit 458714
2
Received nack credit for flit 472553
Requeued flit 472553
Class 0:
Packet latency average = 21.1513
	minimum = 5
	maximum = 51
Network latency average = 21.1513
	minimum = 5
	maximum = 51
Slowest packet = 441483
Flit latency average = 21.1537
	minimum = 5
	maximum = 51
Slowest flit = 441483
Fragmentation average = 0
	minimum = 0
	maximum = 0
Injected packet rate average = 0.149957
	minimum = 0.14465 (at node 6)
	maximum = 0.1557 (at node 49)
Accepted packet rate average = 0.149943
	minimum = 0.14225 (at node 1)
	maximum = 0.15765 (at node 57)
Injected flit rate average = 0.149957
	minimum = 0.14465 (at node 6)
	maximum = 0.1557 (at node 49)
Accepted flit rate average= 0.149943
	minimum = 0.14225 (at node 1)
	maximum = 0.15765 (at node 57)
Injected packet length average = 1
Accepted packet length average = 1
Total in-flight flits = 199 (199 measured)
latency change    = 0.00108024
throughput change = 2.60516e-05
1
Received nack credit for flit 479987
Requeued flit 479987
1
Received nack credit for flit 486322
Requeued flit 486322
1
Received nack credit for flit 496975
Requeued flit 496975
1
Received nack credit for flit 498099
Requeued flit 498099
1
Received nack credit for flit 506981
Requeued flit 506981
1
Received nack credit for flit 525878
Requeued flit 525878
1
Received nack credit for flit 544288
Requeued flit 544288
4
Received nack credit for flit 555303
Requeued flit 555303
5
Received nack credit for flit 562300
Requeued flit 562300
4
Received nack credit for flit 572511
Requeued flit 572511
4
Received nack credit for flit 572986
Requeued flit 572986
Class 0:
Packet latency average = 21.158
	minimum = 5
	maximum = 61
Network latency average = 21.158
	minimum = 5
	maximum = 61
Slowest packet = 572511
Flit latency average = 21.1595
	minimum = 5
	maximum = 61
Slowest flit = 572511
Fragmentation average = 0
	minimum = 0
	maximum = 0
Injected packet rate average = 0.150131
	minimum = 0.144967 (at node 9)
	maximum = 0.153833 (at node 2)
Accepted packet rate average = 0.15012
	minimum = 0.144567 (at node 54)
	maximum = 0.1567 (at node 57)
Injected flit rate average = 0.150131
	minimum = 0.144967 (at node 9)
	maximum = 0.153833 (at node 2)
Accepted flit rate average= 0.15012
	minimum = 0.144567 (at node 54)
	maximum = 0.1567 (at node 57)
Injected packet length average = 1
Accepted packet length average = 1
Total in-flight flits = 201 (201 measured)
latency change    = 0.00031574
throughput change = 0.00118134
Draining all recorded packets ...
Draining remaining packets ...
Time taken is 60088 cycles
====== Overall Traffic Statistics ======
====== Traffic class 0 ======
Packet latency average = 21.1601 (1 samples)
	minimum = 5 (1 samples)
	maximum = 61 (1 samples)
Network latency average = 21.1601 (1 samples)
	minimum = 5 (1 samples)
	maximum = 61 (1 samples)
Flit latency average = 21.1616 (1 samples)
	minimum = 5 (1 samples)
	maximum = 61 (1 samples)
Fragmentation average = 0 (1 samples)
	minimum = 0 (1 samples)
	maximum = 0 (1 samples)
Injected packet rate average = 0.150131 (1 samples)
	minimum = 0.144967 (1 samples)
	maximum = 0.153833 (1 samples)
Accepted packet rate average = 0.15012 (1 samples)
	minimum = 0.144567 (1 samples)
	maximum = 0.1567 (1 samples)
Injected flit rate average = 0.150131 (1 samples)
	minimum = 0.144967 (1 samples)
	maximum = 0.153833 (1 samples)
Accepted flit rate average = 0.15012 (1 samples)
	minimum = 0.144567 (1 samples)
	maximum = 0.1567 (1 samples)
Injected packet size average = 1 (1 samples)
Accepted packet size average = 1 (1 samples)
Hops average = 6.25177 (1 samples)
Total run time 70.0048
