BEGIN Configuration File: examples/ecc_mesh88_config_1_0.100_link_3
// $Id$

// Copyright (c) 2007-2015, Trustees of The Leland Stanford Junior University
// All rights reserved.
//
// Redistribution and use in source and binary forms, with or without
// modification, are permitted provided that the following conditions are met:
//
// Redistributions of source code must retain the above copyright notice, this
// list of conditions and the following disclaimer.
// Redistributions in binary form must reproduce the above copyright notice,
// this list of conditions and the following disclaimer in the documentation
// and/or other materials provided with the distribution.
//
// THIS SOFTWARE IS PROVIDED BY THE COPYRIGHT HOLDERS AND CONTRIBUTORS "AS IS"
// AND ANY EXPRESS OR IMPLIED WARRANTIES, INCLUDING, BUT NOT LIMITED TO, THE
// IMPLIED WARRANTIES OF MERCHANTABILITY AND FITNESS FOR A PARTICULAR PURPOSE
// ARE DISCLAIMED. IN NO EVENT SHALL THE COPYRIGHT OWNER OR CONTRIBUTORS BE
// LIABLE FOR ANY DIRECT, INDIRECT, INCIDENTAL, SPECIAL, EXEMPLARY, OR
// CONSEQUENTIAL DAMAGES (INCLUDING, BUT NOT LIMITED TO, PROCUREMENT OF
// SUBSTITUTE GOODS OR SERVICES; LOSS OF USE, DATA, OR PROFITS; OR BUSINESS
// INTERRUPTION) HOWEVER CAUSED AND ON ANY THEORY OF LIABILITY, WHETHER IN
// CONTRACT, STRICT LIABILITY, OR TORT (INCLUDING NEGLIGENCE OR OTHERWISE)
// ARISING IN ANY WAY OUT OF THE USE OF THIS SOFTWARE, EVEN IF ADVISED OF THE
// POSSIBILITY OF SUCH DAMAGE.

// Dragonfly
//




vc_buf_size = 256;


wait_for_tail_credit = 0;

//
// Router architecture
//
vc_allocator = separable_input_first; 
sw_allocator = separable_input_first;
alloc_iters  = 1;

credit_delay   = 2;
routing_delay  = 0;
vc_alloc_delay = 1;
sw_alloc_delay = 1;
st_final_delay = 1;

input_speedup     = 1;
output_speedup    = 1;
internal_speedup  = 2.0;


warmup_periods = 3;
sim_count          = 1;

sample_period  = 10000;  


routing_function = dor;
num_vcs     = 2;

priority = none;
traffic       = uniform; 

injection_rate = 0.1;
packet_size = 1;
injection_rate_uses_flits = 1;

topology = mesh;

k  = 8;
n  = 2;

fer = 3;
ecc = link;

watch_out=-;
//watch_file = watch.txt;

ecc = link;

stats_out = examples/ecc_mesh88_config_1_0.100_link_3.m;

END Configuration File: examples/ecc_mesh88_config_1_0.100_link_3
4
Received nack credit for flit 202
Requeued flit 202
5
Received nack credit for flit 221
Requeued flit 221
5
Received nack credit for flit 307
Requeued flit 307
2
Received nack credit for flit 461
Requeued flit 461
4
1
1
Received nack credit for flit 584
Requeued flit 584
Received nack credit for flit 691
Requeued flit 691
Received nack credit for flit 657
Requeued flit 657
9
Received nack credit for flit 799
Requeued flit 799
1
1
Received nack credit for flit 1191
Requeued flit 1191
Received nack credit for flit 1204
Requeued flit 1204
3
Received nack credit for flit 1653
Requeued flit 1653
5
Received nack credit for flit 1790
Requeued flit 1790
2
1
Received nack credit for flit 2138
Requeued flit 2138
Received nack credit for flit 2091
Requeued flit 2091
3
Received nack credit for flit 2787
Requeued flit 2787
5
Received nack credit for flit 2964
Requeued flit 2964
8
Received nack credit for flit 3112
Requeued flit 3112
1
3
Received nack credit for flit 4008
Requeued flit 4008
Received nack credit for flit 4002
Requeued flit 4002
4
Received nack credit for flit 4805
Requeued flit 4805
6
Received nack credit for flit 4835
Requeued flit 4835
1
Received nack credit for flit 5076
Requeued flit 5076
5
Received nack credit for flit 5127
Requeued flit 5127
4
Received nack credit for flit 5440
Requeued flit 5440
3
Received nack credit for flit 5555
Requeued flit 5555
1
1
Received nack credit for flit 5779
Requeued flit 5779
Received nack credit for flit 6038
Requeued flit 6038
1
Received nack credit for flit 6112
Requeued flit 6112
5
Received nack credit for flit 6184
Requeued flit 6184
7
Received nack credit for flit 6528
Requeued flit 6528
2
Received nack credit for flit 6966
Requeued flit 6966
6
Received nack credit for flit 7022
Requeued flit 7022
5
Received nack credit for flit 7118
Requeued flit 7118
2
Received nack credit for flit 7392
Requeued flit 7392
2
Received nack credit for flit 7598
Requeued flit 7598
4
Received nack credit for flit 7655
Requeued flit 7655
3
5
Received nack credit for flit 7901
Requeued flit 7901
Received nack credit for flit 7862
Requeued flit 7862
3
3
Received nack credit for flit 8095
Requeued flit 8095
1
Received nack credit for flit 8212
Requeued flit 8212
Received nack credit for flit 8089
Requeued flit 8089
10
Received nack credit for flit 8132
Requeued flit 8132
4
4
Received nack credit for flit 8415
Requeued flit 8415
7
1
Received nack credit for flit 8385
Requeued flit 8385
6
Received nack credit for flit 8406
Requeued flit 8406
Received nack credit for flit 8521
Requeued flit 8521
Received nack credit for flit 8461
Requeued flit 8461
6
Received nack credit for flit 8908
Requeued flit 8908
7
6
7
Received nack credit for flit 9116
Requeued flit 9116
Received nack credit for flit 9164
Requeued flit 9164
Received nack credit for flit 9187
Requeued flit 9187
3
Received nack credit for flit 9350
Requeued flit 9350
2
Received nack credit for flit 9571
Requeued flit 9571
3
5
7
Received nack credit for flit 9628
Requeued flit 9628
Received nack credit for flit 9621
Requeued flit 9621
2
Received nack credit for flit 9803
Requeued flit 9803
1
1
Received nack credit for flit 9622
Requeued flit 9622
Received nack credit for flit 9906
Requeued flit 9906
Received nack credit for flit 9934
Requeued flit 9934
2
Received nack credit for flit 10029
Requeued flit 10029
6
Received nack credit for flit 10906
Requeued flit 10906
1
Received nack credit for flit 11283
Requeued flit 11283
1
Received nack credit for flit 11360
Requeued flit 11360
3
Received nack credit for flit 11406
Requeued flit 11406
3
Received nack credit for flit 11478
Requeued flit 11478
2
Received nack credit for flit 11809
Requeued flit 11809
3
Received nack credit for flit 11882
Requeued flit 11882
1
4
Received nack credit for flit 12113
Requeued flit 12113
Received nack credit for flit 12117
Requeued flit 12117
3
Received nack credit for flit 12337
Requeued flit 12337
7
6
Received nack credit for flit 12325
Requeued flit 12325
Received nack credit for flit 12378
Requeued flit 12378
3
Received nack credit for flit 12624
Requeued flit 12624
4
6
Received nack credit for flit 12655
Requeued flit 12655
Received nack credit for flit 12639
Requeued flit 12639
2
Received nack credit for flit 13047
Requeued flit 13047
6
Received nack credit for flit 13072
Requeued flit 13072
3
Received nack credit for flit 13555
Requeued flit 13555
1
Received nack credit for flit 13680
Requeued flit 13680
4
4
Received nack credit for flit 13819
Requeued flit 13819
Received nack credit for flit 13903
Requeued flit 13903
1
9
Received nack credit for flit 14053
Requeued flit 14053
Received nack credit for flit 13936
Requeued flit 13936
1
Received nack credit for flit 14454
Requeued flit 14454
2
Received nack credit for flit 14719
Requeued flit 14719
1
Received nack credit for flit 14977
Requeued flit 14977
2
Received nack credit for flit 15122
Requeued flit 15122
5
Received nack credit for flit 15111
Requeued flit 15111
6
Received nack credit for flit 15164
Requeued flit 15164
2
4
Received nack credit for flit 15398
Requeued flit 15398
Received nack credit for flit 15401
Requeued flit 15401
1
Received nack credit for flit 15528
Requeued flit 15528
4
Received nack credit for flit 15598
Requeued flit 15598
4
3
Received nack credit for flit 15705
Requeued flit 15705
Received nack credit for flit 15674
Requeued flit 15674
1
Received nack credit for flit 16380
Requeued flit 16380
4
Received nack credit for flit 16468
Requeued flit 16468
3
Received nack credit for flit 16553
Requeued flit 16553
6
9
Received nack credit for flit 17021
Requeued flit 17021
4
Received nack credit for flit 17055
Requeued flit 17055
6
Received nack credit for flit 17238
Requeued flit 17238
Received nack credit for flit 17232
Requeued flit 17232
4
Received nack credit for flit 17576
Requeued flit 17576
1
Received nack credit for flit 18419
Requeued flit 18419
2
Received nack credit for flit 18609
Requeued flit 18609
1
Received nack credit for flit 18721
Requeued flit 18721
6
Received nack credit for flit 19026
Requeued flit 19026
3
Received nack credit for flit 19517
Requeued flit 19517
2
Received nack credit for flit 19722
Requeued flit 19722
4
3
Received nack credit for flit 20221
Requeued flit 20221
Received nack credit for flit 20290
Requeued flit 20290
1
Received nack credit for flit 20635
Requeued flit 20635
2
Received nack credit for flit 20839
Requeued flit 20839
4
Received nack credit for flit 20865
Requeued flit 20865
4
6
Received nack credit for flit 21128
Requeued flit 21128
Received nack credit for flit 21164
Requeued flit 21164
4
7
Received nack credit for flit 21482
Requeued flit 21482
Received nack credit for flit 21446
Requeued flit 21446
6
Received nack credit for flit 21779
Requeued flit 21779
5
Received nack credit for flit 21989
Requeued flit 21989
12
1
1
1
Received nack credit for flit 22547
Requeued flit 22547
6
Received nack credit for flit 22324
Requeued flit 22324
Received nack credit for flit 22550
Requeued flit 22550
Received nack credit for flit 22580
Requeued flit 22580
6
Received nack credit for flit 22503
Requeued flit 22503
Received nack credit for flit 22546
Requeued flit 22546
1
Received nack credit for flit 22766
Requeued flit 22766
7
Received nack credit for flit 22801
Requeued flit 22801
5
Received nack credit for flit 23223
Requeued flit 23223
1
Received nack credit for flit 23993
Requeued flit 23993
5
Received nack credit for flit 24333
Requeued flit 24333
5
1
Received nack credit for flit 24465
Requeued flit 24465
Received nack credit for flit 24595
Requeued flit 24595
1
2
Received nack credit for flit 24976
Requeued flit 24976
Received nack credit for flit 24974
Requeued flit 24974
5
5
Received nack credit for flit 25121
Requeued flit 25121
4
Received nack credit for flit 25158
Requeued flit 25158
5
Received nack credit for flit 25233
Requeued flit 25233
Received nack credit for flit 25270
Requeued flit 25270
3
Received nack credit for flit 25841
Requeued flit 25841
7
2
Received nack credit for flit 25950
Requeued flit 25950
Received nack credit for flit 26068
Requeued flit 26068
6
6
1
Received nack credit for flit 26228
Requeued flit 26228
Received nack credit for flit 26333
Requeued flit 26333
Received nack credit for flit 26156
Requeued flit 26156
2
Received nack credit for flit 26425
Requeued flit 26425
3
Received nack credit for flit 26591
Requeued flit 26591
1
Received nack credit for flit 26835
Requeued flit 26835
6
7
Received nack credit for flit 26846
Requeued flit 26846
1
Received nack credit for flit 26832
Requeued flit 26832
4
Received nack credit for flit 27060
Requeued flit 27060
Received nack credit for flit 27032
Requeued flit 27032
1
Received nack credit for flit 27337
Requeued flit 27337
1
Received nack credit for flit 27966
Requeued flit 27966
9
1
8
Received nack credit for flit 27926
Requeued flit 27926
Received nack credit for flit 28110
Requeued flit 28110
Received nack credit for flit 28007
Requeued flit 28007
1
5
1
Received nack credit for flit 28414
Requeued flit 28414
Received nack credit for flit 28328
Requeued flit 28328
Received nack credit for flit 28440
Requeued flit 28440
2
3
Received nack credit for flit 28810
Requeued flit 28810
Received nack credit for flit 28833
Requeued flit 28833
2
Received nack credit for flit 28925
Requeued flit 28925
9
Received nack credit for flit 28984
Requeued flit 28984
2
3
Received nack credit for flit 29344
Requeued flit 29344
Received nack credit for flit 29320
Requeued flit 29320
4
Received nack credit for flit 29561
Requeued flit 29561
3
Received nack credit for flit 29825
Requeued flit 29825
5
Received nack credit for flit 30003
Requeued flit 30003
3
3
Received nack credit for flit 30145
Requeued flit 30145
Received nack credit for flit 30154
Requeued flit 30154
2
Received nack credit for flit 30258
Requeued flit 30258
2
Received nack credit for flit 30373
Requeued flit 30373
2
Received nack credit for flit 30545
Requeued flit 30545
3
Received nack credit for flit 30679
Requeued flit 30679
5
Received nack credit for flit 30768
Requeued flit 30768
5
Received nack credit for flit 30909
Requeued flit 30909
1
10
Received nack credit for flit 30885
Requeued flit 30885
Received nack credit for flit 31018
Requeued flit 31018
7
1
Received nack credit for flit 31042
Requeued flit 31042
Received nack credit for flit 31189
Requeued flit 31189
1
Received nack credit for flit 31741
Requeued flit 31741
1
2
Received nack credit for flit 32098
Requeued flit 32098
Received nack credit for flit 32169
Requeued flit 32169
1
Received nack credit for flit 32742
Requeued flit 32742
1
Received nack credit for flit 33009
Requeued flit 33009
1
3
Received nack credit for flit 33066
Requeued flit 33066
Received nack credit for flit 33048
Requeued flit 33048
8
Received nack credit for flit 33119
Requeued flit 33119
1
Received nack credit for flit 33392
Requeued flit 33392
6
1
Received nack credit for flit 33363
Requeued flit 33363
Received nack credit for flit 33493
Requeued flit 33493
7
Received nack credit for flit 33497
Requeued flit 33497
6
Received nack credit for flit 33675
Requeued flit 33675
3
1
Received nack credit for flit 33951
Requeued flit 33951
Received nack credit for flit 33999
Requeued flit 33999
1
Received nack credit for flit 34112
Requeued flit 34112
2
Received nack credit for flit 34247
Requeued flit 34247
1
5
Received nack credit for flit 34437
Requeued flit 34437
Received nack credit for flit 34438
Requeued flit 34438
1
6
Received nack credit for flit 34673
Requeued flit 34673
Received nack credit for flit 34575
Requeued flit 34575
3
Received nack credit for flit 35054
Requeued flit 35054
1
Received nack credit for flit 35329
Requeued flit 35329
4
Received nack credit for flit 35523
Requeued flit 35523
1
1
Received nack credit for flit 35773
Requeued flit 35773
Received nack credit for flit 35765
Requeued flit 35765
5
2
1
Received nack credit for flit 36213
Requeued flit 36213
Received nack credit for flit 36320
Requeued flit 36320
Received nack credit for flit 36342
Requeued flit 36342
5
Received nack credit for flit 36396
Requeued flit 36396
1
5
Received nack credit for flit 36688
Requeued flit 36688
Received nack credit for flit 36758
Requeued flit 36758
1
3
Received nack credit for flit 36912
Requeued flit 36912
Received nack credit for flit 36952
Requeued flit 36952
4
Received nack credit for flit 37025
Requeued flit 37025
11
Received nack credit for flit 37028
Requeued flit 37028
1
Received nack credit for flit 37247
Requeued flit 37247
10
Received nack credit for flit 37131
Requeued flit 37131
1
Received nack credit for flit 37390
Requeued flit 37390
3
7
Received nack credit for flit 37390
Requeued flit 37390
Received nack credit for flit 37408
Requeued flit 37408
4
Received nack credit for flit 37694
Requeued flit 37694
5
Received nack credit for flit 37894
Requeued flit 37894
2
2
Received nack credit for flit 38272
Requeued flit 38272
1
Received nack credit for flit 38414
Requeued flit 38414
Received nack credit for flit 38323
Requeued flit 38323
4
Received nack credit for flit 38575
Requeued flit 38575
1
2
Received nack credit for flit 38689
Requeued flit 38689
Received nack credit for flit 38678
Requeued flit 38678
4
Received nack credit for flit 39013
Requeued flit 39013
5
4
2
Received nack credit for flit 39350
Requeued flit 39350
Received nack credit for flit 39329
Requeued flit 39329
Received nack credit for flit 39398
Requeued flit 39398
1
1
Received nack credit for flit 39894
Requeued flit 39894
2
Received nack credit for flit 40002
Requeued flit 40002
Received nack credit for flit 40004
Requeued flit 40004
5
Received nack credit for flit 40030
Requeued flit 40030
3
Received nack credit for flit 40145
Requeued flit 40145
1
Received nack credit for flit 40300
Requeued flit 40300
2
Received nack credit for flit 40414
Requeued flit 40414
4
Received nack credit for flit 40466
Requeued flit 40466
2
Received nack credit for flit 40849
Requeued flit 40849
5
1
Received nack credit for flit 41188
Requeued flit 41188
Received nack credit for flit 41089
Requeued flit 41089
6
3
5
Received nack credit for flit 41302
Requeued flit 41302
Received nack credit for flit 41282
Requeued flit 41282
Received nack credit for flit 41196
Requeued flit 41196
7
Received nack credit for flit 41480
Requeued flit 41480
3
7
Received nack credit for flit 41612
Requeued flit 41612
Received nack credit for flit 41554
Requeued flit 41554
4
Received nack credit for flit 41836
Requeued flit 41836
7
1
Received nack credit for flit 41919
Requeued flit 41919
Received nack credit for flit 42051
Requeued flit 42051
2
5
1
Received nack credit for flit 42190
Requeued flit 42190
3
Received nack credit for flit 42164
Requeued flit 42164
Received nack credit for flit 42112
Requeued flit 42112
Received nack credit for flit 42194
Requeued flit 42194
4
Received nack credit for flit 42409
Requeued flit 42409
6
4
Received nack credit for flit 42495
Requeued flit 42495
Received nack credit for flit 42536
Requeued flit 42536
4
6
6
Received nack credit for flit 42760
Requeued flit 42760
Received nack credit for flit 42780
Requeued flit 42780
5
Received nack credit for flit 42774
Requeued flit 42774
5
Received nack credit for flit 42898
Requeued flit 42898
3
Received nack credit for flit 42858
Requeued flit 42858
Received nack credit for flit 43026
Requeued flit 43026
5
2
Received nack credit for flit 43497
Requeued flit 43497
Received nack credit for flit 43436
Requeued flit 43436
13
4
6
Received nack credit for flit 43499
Requeued flit 43499
Received nack credit for flit 43737
Requeued flit 43737
Received nack credit for flit 43717
Requeued flit 43717
3
1
1
Received nack credit for flit 43952
Requeued flit 43952
Received nack credit for flit 44037
Requeued flit 44037
4
Received nack credit for flit 44022
Requeued flit 44022
7
Received nack credit for flit 44159
Requeued flit 44159
Received nack credit for flit 44154
Requeued flit 44154
8
5
Received nack credit for flit 44225
Requeued flit 44225
Received nack credit for flit 44293
Requeued flit 44293
1
Received nack credit for flit 44520
Requeued flit 44520
1
Received nack credit for flit 44950
Requeued flit 44950
1
Received nack credit for flit 45259
Requeued flit 45259
1
Received nack credit for flit 45373
Requeued flit 45373
10
Received nack credit for flit 45358
Requeued flit 45358
6
2
1
Received nack credit for flit 45730
Requeued flit 45730
Received nack credit for flit 45650
Requeued flit 45650
1
Received nack credit for flit 45900
Requeued flit 45900
2
Received nack credit for flit 45756
Requeued flit 45756
Received nack credit for flit 46007
Requeued flit 46007
1
Received nack credit for flit 46193
Requeued flit 46193
3
Received nack credit for flit 46340
Requeued flit 46340
1
Received nack credit for flit 46426
Requeued flit 46426
3
6
Received nack credit for flit 46771
Requeued flit 46771
Received nack credit for flit 46750
Requeued flit 46750
1
Received nack credit for flit 47268
Requeued flit 47268
9
2
Received nack credit for flit 47415
Requeued flit 47415
1
Received nack credit for flit 47563
Requeued flit 47563
6
5
Received nack credit for flit 47645
Requeued flit 47645
Received nack credit for flit 47618
Requeued flit 47618
Received nack credit for flit 47648
Requeued flit 47648
3
1
Received nack credit for flit 47916
Requeued flit 47916
1
Received nack credit for flit 47869
Requeued flit 47869
Received nack credit for flit 47983
Requeued flit 47983
1
1
Received nack credit for flit 48095
Requeued flit 48095
Received nack credit for flit 48121
Requeued flit 48121
2
Received nack credit for flit 48244
Requeued flit 48244
1
Received nack credit for flit 48374
Requeued flit 48374
1
6
Received nack credit for flit 48609
Requeued flit 48609
Received nack credit for flit 48524
Requeued flit 48524
2
Received nack credit for flit 49267
Requeued flit 49267
1
Received nack credit for flit 49588
Requeued flit 49588
3
Received nack credit for flit 49950
Requeued flit 49950
7
Received nack credit for flit 50057
Requeued flit 50057
2
Received nack credit for flit 50520
Requeued flit 50520
2
5
Received nack credit for flit 50635
Requeued flit 50635
Received nack credit for flit 50680
Requeued flit 50680
1
Received nack credit for flit 50858
Requeued flit 50858
3
Received nack credit for flit 50964
Requeued flit 50964
6
Received nack credit for flit 51693
Requeued flit 51693
4
Received nack credit for flit 51981
Requeued flit 51981
5
Received nack credit for flit 52182
Requeued flit 52182
3
Received nack credit for flit 52358
Requeued flit 52358
8
Received nack credit for flit 52318
Requeued flit 52318
4
Received nack credit for flit 52614
Requeued flit 52614
9
Received nack credit for flit 52609
Requeued flit 52609
1
Received nack credit for flit 53032
Requeued flit 53032
6
7
Received nack credit for flit 53176
Requeued flit 53176
1
Received nack credit for flit 53200
Requeued flit 53200
Received nack credit for flit 53328
Requeued flit 53328
7
Received nack credit for flit 53422
Requeued flit 53422
6
3
Received nack credit for flit 53647
Requeued flit 53647
Received nack credit for flit 53725
Requeued flit 53725
1
1
5
Received nack credit for flit 53841
Requeued flit 53841
Received nack credit for flit 53808
Requeued flit 53808
Received nack credit for flit 53874
Requeued flit 53874
1
Received nack credit for flit 53997
Requeued flit 53997
3
7
Received nack credit for flit 54163
Requeued flit 54163
2
Received nack credit for flit 54319
Requeued flit 54319
Received nack credit for flit 54110
Requeued flit 54110
6
Received nack credit for flit 54361
Requeued flit 54361
3
Received nack credit for flit 54501
Requeued flit 54501
3
Received nack credit for flit 54720
Requeued flit 54720
3
Received nack credit for flit 54919
Requeued flit 54919
1
Received nack credit for flit 55064
Requeued flit 55064
6
Received nack credit for flit 55073
Requeued flit 55073
3
4
Received nack credit for flit 55348
Requeued flit 55348
1
Received nack credit for flit 55352
Requeued flit 55352
Received nack credit for flit 55460
Requeued flit 55460
8
3
Received nack credit for flit 55545
Requeued flit 55545
Received nack credit for flit 55684
Requeued flit 55684
4
Received nack credit for flit 56016
Requeued flit 56016
5
7
2
Received nack credit for flit 56290
Requeued flit 56290
Received nack credit for flit 56382
Requeued flit 56382
Received nack credit for flit 56474
Requeued flit 56474
3
Received nack credit for flit 56809
Requeued flit 56809
2
Received nack credit for flit 56972
Requeued flit 56972
3
Received nack credit for flit 57003
Requeued flit 57003
5
1
Received nack credit for flit 57462
Requeued flit 57462
Received nack credit for flit 57335
Requeued flit 57335
4
2
Received nack credit for flit 57711
Requeued flit 57711
3
Received nack credit for flit 57637
Requeued flit 57637
Received nack credit for flit 57807
Requeued flit 57807
3
Received nack credit for flit 58471
Requeued flit 58471
3
Received nack credit for flit 58579
Requeued flit 58579
5
Received nack credit for flit 58749
Requeued flit 58749
1
Received nack credit for flit 59198
Requeued flit 59198
4
Received nack credit for flit 59350
Requeued flit 59350
1
4
Received nack credit for flit 59685
Requeued flit 59685
Received nack credit for flit 59643
Requeued flit 59643
3
Received nack credit for flit 59785
Requeued flit 59785
6
Received nack credit for flit 60236
Requeued flit 60236
3
Received nack credit for flit 60453
Requeued flit 60453
2
5
Received nack credit for flit 60585
Requeued flit 60585
3
Received nack credit for flit 60574
Requeued flit 60574
Received nack credit for flit 60669
Requeued flit 60669
2
Received nack credit for flit 60866
Requeued flit 60866
1
5
Received nack credit for flit 60963
Requeued flit 60963
4
Received nack credit for flit 60960
Requeued flit 60960
Received nack credit for flit 61068
Requeued flit 61068
6
Received nack credit for flit 61341
Requeued flit 61341
1
Received nack credit for flit 61587
Requeued flit 61587
3
Received nack credit for flit 61688
Requeued flit 61688
1
Received nack credit for flit 61900
Requeued flit 61900
3
7
Received nack credit for flit 62305
Requeued flit 62305
3
Received nack credit for flit 62356
Requeued flit 62356
Received nack credit for flit 62481
Requeued flit 62481
2
Received nack credit for flit 62874
Requeued flit 62874
6
1
Received nack credit for flit 62952
Requeued flit 62952
Received nack credit for flit 63074
Requeued flit 63074
4
1
Received nack credit for flit 63249
Requeued flit 63249
9
Received nack credit for flit 63170
Requeued flit 63170
Received nack credit for flit 63182
Requeued flit 63182
6
Received nack credit for flit 63345
Requeued flit 63345
1
Received nack credit for flit 63529
Requeued flit 63529
6
Received nack credit for flit 63515
Requeued flit 63515
Class 0:
Packet latency average = 21.0405
	minimum = 5
	maximum = 83
Network latency average = 21.0405
	minimum = 5
	maximum = 83
Slowest packet = 45756
Flit latency average = 21.0405
	minimum = 5
	maximum = 83
Slowest flit = 45756
Fragmentation average = 0
	minimum = 0
	maximum = 0
Injected packet rate average = 0.0999719
	minimum = 0.0921 (at node 17)
	maximum = 0.1075 (at node 18)
Accepted packet rate average = 0.0997516
	minimum = 0.0931 (at node 36)
	maximum = 0.1053 (at node 51)
Injected flit rate average = 0.0999719
	minimum = 0.0921 (at node 17)
	maximum = 0.1075 (at node 18)
Accepted flit rate average= 0.0997516
	minimum = 0.0931 (at node 36)
	maximum = 0.1053 (at node 51)
Injected packet length average = 1
Accepted packet length average = 1
Total in-flight flits = 141 (0 measured)
latency change    = 1
throughput change = 1
3
2
Received nack credit for flit 63999
Requeued flit 63999
Received nack credit for flit 64032
Requeued flit 64032
3
3
Received nack credit for flit 64172
Requeued flit 64172
Received nack credit for flit 64133
Requeued flit 64133
1
Received nack credit for flit 64338
Requeued flit 64338
5
10
1
Received nack credit for flit 64395
Requeued flit 64395
Received nack credit for flit 64303
Requeued flit 64303
5
Received nack credit for flit 64537
Requeued flit 64537
Received nack credit for flit 64494
Requeued flit 64494
2
Received nack credit for flit 65249
Requeued flit 65249
1
5
1
Received nack credit for flit 65361
Requeued flit 65361
Received nack credit for flit 65321
Requeued flit 65321
Received nack credit for flit 65393
Requeued flit 65393
2
Received nack credit for flit 65670
Requeued flit 65670
3
5
Received nack credit for flit 65709
Requeued flit 65709
Received nack credit for flit 65743
Requeued flit 65743
5
5
Received nack credit for flit 65874
Requeued flit 65874
1
Received nack credit for flit 66023
Requeued flit 66023
Received nack credit for flit 65930
Requeued flit 65930
3
7
Received nack credit for flit 66227
Requeued flit 66227
Received nack credit for flit 66284
Requeued flit 66284
1
Received nack credit for flit 66432
Requeued flit 66432
6
Received nack credit for flit 66493
Requeued flit 66493
5
Received nack credit for flit 66704
Requeued flit 66704
5
Received nack credit for flit 66828
Requeued flit 66828
1
Received nack credit for flit 67075
Requeued flit 67075
5
3
Received nack credit for flit 67558
Requeued flit 67558
Received nack credit for flit 67652
Requeued flit 67652
6
Received nack credit for flit 67895
Requeued flit 67895
1
Received nack credit for flit 68146
Requeued flit 68146
3
Received nack credit for flit 68341
Requeued flit 68341
5
4
Received nack credit for flit 68676
Requeued flit 68676
1
Received nack credit for flit 68792
Requeued flit 68792
Received nack credit for flit 68731
Requeued flit 68731
4
Received nack credit for flit 69140
Requeued flit 69140
1
2
Received nack credit for flit 69669
Requeued flit 69669
Received nack credit for flit 69745
Requeued flit 69745
3
Received nack credit for flit 70004
Requeued flit 70004
2
5
3
Received nack credit for flit 70533
Requeued flit 70533
Received nack credit for flit 70593
Requeued flit 70593
Received nack credit for flit 70562
Requeued flit 70562
6
Received nack credit for flit 70709
Requeued flit 70709
1
Received nack credit for flit 70976
Requeued flit 70976
4
Received nack credit for flit 70995
Requeued flit 70995
4
Received nack credit for flit 71332
Requeued flit 71332
6
Received nack credit for flit 71347
Requeued flit 71347
5
Received nack credit for flit 71544
Requeued flit 71544
3
Received nack credit for flit 71903
Requeued flit 71903
4
Received nack credit for flit 72164
Requeued flit 72164
3
3
1
Received nack credit for flit 72521
Requeued flit 72521
Received nack credit for flit 72544
Requeued flit 72544
Received nack credit for flit 72595
Requeued flit 72595
2
Received nack credit for flit 73174
Requeued flit 73174
1
2
Received nack credit for flit 73252
Requeued flit 73252
Received nack credit for flit 73284
Requeued flit 73284
7
3
Received nack credit for flit 73284
Requeued flit 73284
7
Received nack credit for flit 73449
Requeued flit 73449
Received nack credit for flit 73433
Requeued flit 73433
1
Received nack credit for flit 73731
Requeued flit 73731
1
Received nack credit for flit 73841
Requeued flit 73841
4
Received nack credit for flit 73838
Requeued flit 73838
5
Received nack credit for flit 74051
Requeued flit 74051
1
Received nack credit for flit 74211
Requeued flit 74211
1
2
Received nack credit for flit 74482
Requeued flit 74482
1
1
Received nack credit for flit 74282
Requeued flit 74282
Received nack credit for flit 74530
Requeued flit 74530
1
1
Received nack credit for flit 74539
Requeued flit 74539
Received nack credit for flit 74627
Requeued flit 74627
Received nack credit for flit 74625
Requeued flit 74625
2
Received nack credit for flit 74740
Requeued flit 74740
2
1
Received nack credit for flit 75034
Requeued flit 75034
Received nack credit for flit 74904
Requeued flit 74904
8
Received nack credit for flit 75036
Requeued flit 75036
4
Received nack credit for flit 75534
Requeued flit 75534
1
1
Received nack credit for flit 75916
Requeued flit 75916
Received nack credit for flit 75886
Requeued flit 75886
1
Received nack credit for flit 76447
Requeued flit 76447
3
Received nack credit for flit 76935
Requeued flit 76935
3
Received nack credit for flit 77010
Requeued flit 77010
8
Received nack credit for flit 77135
Requeued flit 77135
6
5
Received nack credit for flit 77351
Requeued flit 77351
Received nack credit for flit 77424
Requeued flit 77424
5
Received nack credit for flit 77475
Requeued flit 77475
2
Received nack credit for flit 77653
Requeued flit 77653
2
Received nack credit for flit 77702
Requeued flit 77702
4
Received nack credit for flit 77732
Requeued flit 77732
5
Received nack credit for flit 78007
Requeued flit 78007
1
2
13
Received nack credit for flit 78172
Requeued flit 78172
Received nack credit for flit 78156
Requeued flit 78156
Received nack credit for flit 77970
Requeued flit 77970
4
Received nack credit for flit 78289
Requeued flit 78289
9
Received nack credit for flit 78363
Requeued flit 78363
10
Received nack credit for flit 78639
Requeued flit 78639
1
Received nack credit for flit 78857
Requeued flit 78857
4
Received nack credit for flit 78995
Requeued flit 78995
2
3
1
3
Received nack credit for flit 79121
Requeued flit 79121
Received nack credit for flit 79161
Requeued flit 79161
Received nack credit for flit 79148
Requeued flit 79148
Received nack credit for flit 79124
Requeued flit 79124
2
Received nack credit for flit 79282
Requeued flit 79282
1
Received nack credit for flit 79462
Requeued flit 79462
5
Received nack credit for flit 79715
Requeued flit 79715
7
Received nack credit for flit 79865
Requeued flit 79865
8
Received nack credit for flit 79936
Requeued flit 79936
3
Received nack credit for flit 80286
Requeued flit 80286
1
Received nack credit for flit 80504
Requeued flit 80504
1
1
Received nack credit for flit 80711
Requeued flit 80711
Received nack credit for flit 80789
Requeued flit 80789
2
Received nack credit for flit 81017
Requeued flit 81017
1
7
Received nack credit for flit 81434
Requeued flit 81434
6
Received nack credit for flit 81345
Requeued flit 81345
Received nack credit for flit 81409
Requeued flit 81409
1
Received nack credit for flit 81623
Requeued flit 81623
1
Received nack credit for flit 81709
Requeued flit 81709
5
Received nack credit for flit 81923
Requeued flit 81923
5
Received nack credit for flit 82181
Requeued flit 82181
3
Received nack credit for flit 82484
Requeued flit 82484
1
Received nack credit for flit 82790
Requeued flit 82790
1
Received nack credit for flit 82933
Requeued flit 82933
5
2
Received nack credit for flit 83098
Requeued flit 83098
2
Received nack credit for flit 83181
Requeued flit 83181
Received nack credit for flit 83199
Requeued flit 83199
3
Received nack credit for flit 83338
Requeued flit 83338
5
Received nack credit for flit 83367
Requeued flit 83367
4
Received nack credit for flit 83879
Requeued flit 83879
1
6
Received nack credit for flit 84066
Requeued flit 84066
5
Received nack credit for flit 84030
Requeued flit 84030
Received nack credit for flit 84098
Requeued flit 84098
1
1
Received nack credit for flit 84443
Requeued flit 84443
Received nack credit for flit 84435
Requeued flit 84435
5
Received nack credit for flit 84889
Requeued flit 84889
3
3
2
Received nack credit for flit 85184
Requeued flit 85184
Received nack credit for flit 85232
Requeued flit 85232
1
Received nack credit for flit 85199
Requeued flit 85199
3
Received nack credit for flit 85515
Requeued flit 85515
1
Received nack credit for flit 85400
Requeued flit 85400
Received nack credit for flit 85601
Requeued flit 85601
1
5
Received nack credit for flit 85682
Requeued flit 85682
Received nack credit for flit 85647
Requeued flit 85647
4
3
Received nack credit for flit 85846
Requeued flit 85846
Received nack credit for flit 85818
Requeued flit 85818
3
Received nack credit for flit 85979
Requeued flit 85979
2
Received nack credit for flit 86139
Requeued flit 86139
9
Received nack credit for flit 86581
Requeued flit 86581
4
2
Received nack credit for flit 86767
Requeued flit 86767
Received nack credit for flit 86714
Requeued flit 86714
2
Received nack credit for flit 86874
Requeued flit 86874
3
5
Received nack credit for flit 87337
Requeued flit 87337
1
Received nack credit for flit 87446
Requeued flit 87446
1
Received nack credit for flit 87336
Requeued flit 87336
5
4
Received nack credit for flit 87494
Requeued flit 87494
Received nack credit for flit 87464
Requeued flit 87464
4
Received nack credit for flit 87554
Requeued flit 87554
Received nack credit for flit 87501
Requeued flit 87501
2
8
Received nack credit for flit 87609
Requeued flit 87609
1
6
Received nack credit for flit 87734
Requeued flit 87734
Received nack credit for flit 87755
Requeued flit 87755
Received nack credit for flit 87812
Requeued flit 87812
1
12
Received nack credit for flit 87914
Requeued flit 87914
Received nack credit for flit 87716
Requeued flit 87716
1
2
Received nack credit for flit 88025
Requeued flit 88025
Received nack credit for flit 88066
Requeued flit 88066
1
Received nack credit for flit 88240
Requeued flit 88240
1
Received nack credit for flit 88346
Requeued flit 88346
3
Received nack credit for flit 88592
Requeued flit 88592
6
12
Received nack credit for flit 88765
Requeued flit 88765
Received nack credit for flit 88654
Requeued flit 88654
1
4
Received nack credit for flit 89137
Requeued flit 89137
Received nack credit for flit 89108
Requeued flit 89108
2
Received nack credit for flit 89264
Requeued flit 89264
2
Received nack credit for flit 89585
Requeued flit 89585
2
5
Received nack credit for flit 89702
Requeued flit 89702
Received nack credit for flit 89647
Requeued flit 89647
5
3
Received nack credit for flit 89754
Requeued flit 89754
Received nack credit for flit 89713
Requeued flit 89713
7
2
Received nack credit for flit 89982
Requeued flit 89982
4
Received nack credit for flit 90102
Requeued flit 90102
Received nack credit for flit 90086
Requeued flit 90086
1
1
Received nack credit for flit 90597
Requeued flit 90597
Received nack credit for flit 90588
Requeued flit 90588
1
2
4
Received nack credit for flit 90869
Requeued flit 90869
Received nack credit for flit 90901
Requeued flit 90901
Received nack credit for flit 90765
Requeued flit 90765
2
Received nack credit for flit 90961
Requeued flit 90961
4
2
Received nack credit for flit 91008
Requeued flit 91008
Received nack credit for flit 90969
Requeued flit 90969
2
Received nack credit for flit 91152
Requeued flit 91152
3
3
1
Received nack credit for flit 91385
Requeued flit 91385
Received nack credit for flit 91462
Requeued flit 91462
5
Received nack credit for flit 91313
Requeued flit 91313
Received nack credit for flit 91436
Requeued flit 91436
3
Received nack credit for flit 91660
Requeued flit 91660
4
Received nack credit for flit 91809
Requeued flit 91809
4
Received nack credit for flit 91909
Requeued flit 91909
1
Received nack credit for flit 92201
Requeued flit 92201
11
Received nack credit for flit 92160
Requeued flit 92160
5
Received nack credit for flit 92501
Requeued flit 92501
6
Received nack credit for flit 93127
Requeued flit 93127
2
4
Received nack credit for flit 93279
Requeued flit 93279
1
Received nack credit for flit 93417
Requeued flit 93417
5
Received nack credit for flit 93293
Requeued flit 93293
7
Received nack credit for flit 93459
Requeued flit 93459
1
Received nack credit for flit 93455
Requeued flit 93455
Received nack credit for flit 93577
Requeued flit 93577
5
4
Received nack credit for flit 93646
Requeued flit 93646
4
Received nack credit for flit 93630
Requeued flit 93630
2
Received nack credit for flit 93787
Requeued flit 93787
Received nack credit for flit 93891
Requeued flit 93891
7
Received nack credit for flit 94060
Requeued flit 94060
3
Received nack credit for flit 94427
Requeued flit 94427
1
3
Received nack credit for flit 94551
Requeued flit 94551
Received nack credit for flit 94546
Requeued flit 94546
1
Received nack credit for flit 94634
Requeued flit 94634
1
1
Received nack credit for flit 94860
Requeued flit 94860
Received nack credit for flit 94869
Requeued flit 94869
1
Received nack credit for flit 95016
Requeued flit 95016
2
Received nack credit for flit 95233
Requeued flit 95233
6
Received nack credit for flit 95279
Requeued flit 95279
6
Received nack credit for flit 95440
Requeued flit 95440
2
Received nack credit for flit 95656
Requeued flit 95656
5
1
Received nack credit for flit 96029
Requeued flit 96029
1
Received nack credit for flit 96131
Requeued flit 96131
7
1
Received nack credit for flit 96216
Requeued flit 96216
Received nack credit for flit 96102
Requeued flit 96102
Received nack credit for flit 96245
Requeued flit 96245
4
Received nack credit for flit 96330
Requeued flit 96330
6
Received nack credit for flit 96538
Requeued flit 96538
3
Received nack credit for flit 96673
Requeued flit 96673
6
Received nack credit for flit 96828
Requeued flit 96828
3
Received nack credit for flit 97128
Requeued flit 97128
1
2
Received nack credit for flit 97268
Requeued flit 97268
13
Received nack credit for flit 97286
Requeued flit 97286
Received nack credit for flit 97230
Requeued flit 97230
1
Received nack credit for flit 97691
Requeued flit 97691
1
Received nack credit for flit 98010
Requeued flit 98010
7
1
Received nack credit for flit 97920
Requeued flit 97920
Received nack credit for flit 98115
Requeued flit 98115
5
3
Received nack credit for flit 98704
Requeued flit 98704
Received nack credit for flit 98768
Requeued flit 98768
1
Received nack credit for flit 99028
Requeued flit 99028
2
Received nack credit for flit 99274
Requeued flit 99274
1
4
Received nack credit for flit 99421
Requeued flit 99421
Received nack credit for flit 99447
Requeued flit 99447
7
Received nack credit for flit 99502
Requeued flit 99502
1
Received nack credit for flit 99767
Requeued flit 99767
5
Received nack credit for flit 99732
Requeued flit 99732
5
Received nack credit for flit 99873
Requeued flit 99873
6
Received nack credit for flit 100163
Requeued flit 100163
8
Received nack credit for flit 100203
Requeued flit 100203
8
Received nack credit for flit 100508
Requeued flit 100508
1
Received nack credit for flit 100841
Requeued flit 100841
4
Received nack credit for flit 101201
Requeued flit 101201
2
Received nack credit for flit 101369
Requeued flit 101369
1
4
Received nack credit for flit 101529
Requeued flit 101529
Received nack credit for flit 101514
Requeued flit 101514
9
1
Received nack credit for flit 101927
Requeued flit 101927
Received nack credit for flit 101790
Requeued flit 101790
4
Received nack credit for flit 102168
Requeued flit 102168
8
Received nack credit for flit 102309
Requeued flit 102309
4
1
Received nack credit for flit 102599
Requeued flit 102599
Received nack credit for flit 102699
Requeued flit 102699
1
Received nack credit for flit 102876
Requeued flit 102876
8
Received nack credit for flit 102823
Requeued flit 102823
3
Received nack credit for flit 102978
Requeued flit 102978
6
Received nack credit for flit 103399
Requeued flit 103399
1
Received nack credit for flit 103816
Requeued flit 103816
3
Received nack credit for flit 104006
Requeued flit 104006
1
Received nack credit for flit 104158
Requeued flit 104158
1
Received nack credit for flit 104803
Requeued flit 104803
1
5
Received nack credit for flit 104892
Requeued flit 104892
Received nack credit for flit 104889
Requeued flit 104889
1
2
Received nack credit for flit 105201
Requeued flit 105201
1
1
Received nack credit for flit 105216
Requeued flit 105216
Received nack credit for flit 105255
Requeued flit 105255
1
Received nack credit for flit 105315
Requeued flit 105315
Received nack credit for flit 105263
Requeued flit 105263
4
Received nack credit for flit 105376
Requeued flit 105376
5
8
Received nack credit for flit 105412
Requeued flit 105412
Received nack credit for flit 105368
Requeued flit 105368
5
Received nack credit for flit 105541
Requeued flit 105541
3
Received nack credit for flit 105625
Requeued flit 105625
3
Received nack credit for flit 105868
Requeued flit 105868
6
Received nack credit for flit 106098
Requeued flit 106098
6
Received nack credit for flit 106235
Requeued flit 106235
5
Received nack credit for flit 106409
Requeued flit 106409
1
1
Received nack credit for flit 106594
Requeued flit 106594
Received nack credit for flit 106649
Requeued flit 106649
1
Received nack credit for flit 106750
Requeued flit 106750
2
Received nack credit for flit 106895
Requeued flit 106895
1
Received nack credit for flit 107172
Requeued flit 107172
3
7
Received nack credit for flit 107355
Requeued flit 107355
5
Received nack credit for flit 107321
Requeued flit 107321
1
4
Received nack credit for flit 107406
Requeued flit 107406
6
Received nack credit for flit 107669
Requeued flit 107669
Received nack credit for flit 107628
Requeued flit 107628
Received nack credit for flit 107671
Requeued flit 107671
3
3
Received nack credit for flit 107851
Requeued flit 107851
Received nack credit for flit 107930
Requeued flit 107930
5
Received nack credit for flit 107954
Requeued flit 107954
1
Received nack credit for flit 108146
Requeued flit 108146
5
Received nack credit for flit 108464
Requeued flit 108464
6
Received nack credit for flit 108734
Requeued flit 108734
1
Received nack credit for flit 109020
Requeued flit 109020
7
Received nack credit for flit 109200
Requeued flit 109200
1
Received nack credit for flit 110143
Requeued flit 110143
9
Received nack credit for flit 110070
Requeued flit 110070
2
Received nack credit for flit 110503
Requeued flit 110503
6
3
Received nack credit for flit 110570
Requeued flit 110570
1
Received nack credit for flit 110775
Requeued flit 110775
7
Received nack credit for flit 110719
Requeued flit 110719
1
Received nack credit for flit 110739
Requeued flit 110739
Received nack credit for flit 110858
Requeued flit 110858
1
Received nack credit for flit 111004
Requeued flit 111004
4
Received nack credit for flit 111452
Requeued flit 111452
2
5
Received nack credit for flit 111487
Requeued flit 111487
Received nack credit for flit 111535
Requeued flit 111535
8
5
Received nack credit for flit 111477
Requeued flit 111477
Received nack credit for flit 111580
Requeued flit 111580
1
Received nack credit for flit 111765
Requeued flit 111765
5
Received nack credit for flit 111810
Requeued flit 111810
1
Received nack credit for flit 112264
Requeued flit 112264
5
4
6
Received nack credit for flit 112550
Requeued flit 112550
Received nack credit for flit 112571
Requeued flit 112571
Received nack credit for flit 112327
Requeued flit 112327
2
1
Received nack credit for flit 113002
Requeued flit 113002
Received nack credit for flit 112969
Requeued flit 112969
2
Received nack credit for flit 113087
Requeued flit 113087
1
Received nack credit for flit 113262
Requeued flit 113262
1
Received nack credit for flit 113405
Requeued flit 113405
7
Received nack credit for flit 113420
Requeued flit 113420
8
4
Received nack credit for flit 113510
Requeued flit 113510
3
Received nack credit for flit 113581
Requeued flit 113581
Received nack credit for flit 113650
Requeued flit 113650
3
Received nack credit for flit 114080
Requeued flit 114080
8
Received nack credit for flit 114020
Requeued flit 114020
1
Received nack credit for flit 114398
Requeued flit 114398
4
Received nack credit for flit 114639
Requeued flit 114639
1
Received nack credit for flit 114757
Requeued flit 114757
1
Received nack credit for flit 115072
Requeued flit 115072
3
1
Received nack credit for flit 115485
Requeued flit 115485
4
1
Received nack credit for flit 115561
Requeued flit 115561
Received nack credit for flit 115659
Requeued flit 115659
Received nack credit for flit 115590
Requeued flit 115590
8
3
Received nack credit for flit 115655
Requeued flit 115655
Received nack credit for flit 115795
Requeued flit 115795
1
Received nack credit for flit 116039
Requeued flit 116039
3
Received nack credit for flit 116508
Requeued flit 116508
4
5
Received nack credit for flit 116698
Requeued flit 116698
Received nack credit for flit 116715
Requeued flit 116715
1
Received nack credit for flit 117130
Requeued flit 117130
2
Received nack credit for flit 117521
Requeued flit 117521
3
3
5
Received nack credit for flit 117674
Requeued flit 117674
Received nack credit for flit 117836
Requeued flit 117836
Received nack credit for flit 117813
Requeued flit 117813
6
1
Received nack credit for flit 118052
Requeued flit 118052
Received nack credit for flit 117886
Requeued flit 117886
1
8
Received nack credit for flit 118056
Requeued flit 118056
Received nack credit for flit 118161
Requeued flit 118161
3
1
2
Received nack credit for flit 118412
Requeued flit 118412
Received nack credit for flit 118284
Requeued flit 118284
Received nack credit for flit 118408
Requeued flit 118408
5
Received nack credit for flit 118732
Requeued flit 118732
1
Received nack credit for flit 118929
Requeued flit 118929
2
Received nack credit for flit 119029
Requeued flit 119029
1
8
Received nack credit for flit 119083
Requeued flit 119083
Received nack credit for flit 119194
Requeued flit 119194
7
Received nack credit for flit 119212
Requeued flit 119212
4
Received nack credit for flit 119379
Requeued flit 119379
1
Received nack credit for flit 119491
Requeued flit 119491
1
Received nack credit for flit 120516
Requeued flit 120516
2
Received nack credit for flit 120545
Requeued flit 120545
1
1
2
Received nack credit for flit 120896
Requeued flit 120896
Received nack credit for flit 120916
Requeued flit 120916
Received nack credit for flit 120903
Requeued flit 120903
1
2
Received nack credit for flit 121291
Requeued flit 121291
Received nack credit for flit 121317
Requeued flit 121317
6
1
1
Received nack credit for flit 121426
Requeued flit 121426
Received nack credit for flit 121311
Requeued flit 121311
5
Received nack credit for flit 121428
Requeued flit 121428
1
Received nack credit for flit 121664
Requeued flit 121664
3
Received nack credit for flit 121763
Requeued flit 121763
7
Received nack credit for flit 121420
Requeued flit 121420
Received nack credit for flit 121808
Requeued flit 121808
1
Received nack credit for flit 122022
Requeued flit 122022
1
Received nack credit for flit 122230
Requeued flit 122230
1
Received nack credit for flit 122686
Requeued flit 122686
6
Received nack credit for flit 122624
Requeued flit 122624
1
Received nack credit for flit 122967
Requeued flit 122967
1
5
Received nack credit for flit 123266
Requeued flit 123266
Received nack credit for flit 123220
Requeued flit 123220
4
Received nack credit for flit 123532
Requeued flit 123532
1
Received nack credit for flit 123748
Requeued flit 123748
1
Received nack credit for flit 123890
Requeued flit 123890
3
Received nack credit for flit 123940
Requeued flit 123940
1
Received nack credit for flit 124100
Requeued flit 124100
1
7
Received nack credit for flit 124169
Requeued flit 124169
Received nack credit for flit 124159
Requeued flit 124159
4
Received nack credit for flit 124502
Requeued flit 124502
2
Received nack credit for flit 124664
Requeued flit 124664
1
2
5
Received nack credit for flit 124798
Requeued flit 124798
Received nack credit for flit 124763
Requeued flit 124763
Received nack credit for flit 124791
Requeued flit 124791
2
Received nack credit for flit 125274
Requeued flit 125274
3
Received nack credit for flit 125337
Requeued flit 125337
2
Received nack credit for flit 125558
Requeued flit 125558
2
Received nack credit for flit 125705
Requeued flit 125705
2
Received nack credit for flit 125807
Requeued flit 125807
6
Received nack credit for flit 125975
Requeued flit 125975
3
Received nack credit for flit 126287
Requeued flit 126287
4
Received nack credit for flit 126318
Requeued flit 126318
4
3
Received nack credit for flit 126318
Requeued flit 126318
Received nack credit for flit 126446
Requeued flit 126446
1
Received nack credit for flit 126864
Requeued flit 126864
Class 0:
Packet latency average = 21.0575
	minimum = 5
	maximum = 103
Network latency average = 21.0575
	minimum = 5
	maximum = 103
Slowest packet = 121420
Flit latency average = 21.0575
	minimum = 5
	maximum = 103
Slowest flit = 121420
Fragmentation average = 0
	minimum = 0
	maximum = 0
Injected packet rate average = 0.099907
	minimum = 0.0959 (at node 55)
	maximum = 0.1048 (at node 58)
Accepted packet rate average = 0.0997883
	minimum = 0.0956 (at node 46)
	maximum = 0.104 (at node 1)
Injected flit rate average = 0.099907
	minimum = 0.0959 (at node 55)
	maximum = 0.1048 (at node 58)
Accepted flit rate average= 0.0997883
	minimum = 0.0956 (at node 46)
	maximum = 0.104 (at node 1)
Injected packet length average = 1
Accepted packet length average = 1
Total in-flight flits = 152 (0 measured)
latency change    = 0.000807945
throughput change = 0.000367967
3
3
Received nack credit for flit 127884
Requeued flit 127884
Received nack credit for flit 127928
Requeued flit 127928
3
Received nack credit for flit 128037
Requeued flit 128037
1
Received nack credit for flit 128147
Requeued flit 128147
7
Received nack credit for flit 128117
Requeued flit 128117
1
Received nack credit for flit 128342
Requeued flit 128342
6
Received nack credit for flit 128368
Requeued flit 128368
1
7
Received nack credit for flit 128636
Requeued flit 128636
8
Received nack credit for flit 128580
Requeued flit 128580
2
Received nack credit for flit 128600
Requeued flit 128600
Received nack credit for flit 128858
Requeued flit 128858
1
1
Received nack credit for flit 129242
Requeued flit 129242
Received nack credit for flit 129200
Requeued flit 129200
6
Received nack credit for flit 129330
Requeued flit 129330
2
5
Received nack credit for flit 129605
Requeued flit 129605
Received nack credit for flit 129564
Requeued flit 129564
1
Received nack credit for flit 129786
Requeued flit 129786
1
1
5
Received nack credit for flit 129859
Requeued flit 129859
Received nack credit for flit 129816
Requeued flit 129816
2
Received nack credit for flit 129886
Requeued flit 129886
Received nack credit for flit 129959
Requeued flit 129959
2
Received nack credit for flit 130000
Requeued flit 130000
4
Received nack credit for flit 130217
Requeued flit 130217
1
1
Received nack credit for flit 130351
Requeued flit 130351
Received nack credit for flit 130362
Requeued flit 130362
5
1
Received nack credit for flit 130578
Requeued flit 130578
Received nack credit for flit 130495
Requeued flit 130495
3
Received nack credit for flit 130976
Requeued flit 130976
6
Received nack credit for flit 131013
Requeued flit 131013
1
Received nack credit for flit 131211
Requeued flit 131211
1
5
Received nack credit for flit 131265
Requeued flit 131265
Received nack credit for flit 131215
Requeued flit 131215
1
Received nack credit for flit 131558
Requeued flit 131558
4
Received nack credit for flit 131637
Requeued flit 131637
6
6
Received nack credit for flit 131774
Requeued flit 131774
Received nack credit for flit 131791
Requeued flit 131791
2
Received nack credit for flit 131927
Requeued flit 131927
1
2
1
Received nack credit for flit 132160
Requeued flit 132160
Received nack credit for flit 132187
Requeued flit 132187
Received nack credit for flit 132231
Requeued flit 132231
3
Received nack credit for flit 132387
Requeued flit 132387
3
Received nack credit for flit 132540
Requeued flit 132540
2
4
Received nack credit for flit 132636
Requeued flit 132636
Received nack credit for flit 132612
Requeued flit 132612
2
Received nack credit for flit 132940
Requeued flit 132940
1
2
Received nack credit for flit 133220
Requeued flit 133220
1
Received nack credit for flit 133224
Requeued flit 133224
9
Received nack credit for flit 133182
Requeued flit 133182
Received nack credit for flit 133304
Requeued flit 133304
3
Received nack credit for flit 133468
Requeued flit 133468
1
Received nack credit for flit 133696
Requeued flit 133696
1
6
Received nack credit for flit 133719
Requeued flit 133719
2
Received nack credit for flit 133785
Requeued flit 133785
Received nack credit for flit 133854
Requeued flit 133854
2
3
Received nack credit for flit 133939
Requeued flit 133939
3
Received nack credit for flit 133992
Requeued flit 133992
Received nack credit for flit 134008
Requeued flit 134008
1
4
Received nack credit for flit 134199
Requeued flit 134199
Received nack credit for flit 134179
Requeued flit 134179
4
Received nack credit for flit 134321
Requeued flit 134321
1
Received nack credit for flit 134479
Requeued flit 134479
3
Received nack credit for flit 134518
Requeued flit 134518
1
1
Received nack credit for flit 134879
Requeued flit 134879
Received nack credit for flit 134885
Requeued flit 134885
2
2
Received nack credit for flit 135005
Requeued flit 135005
5
Received nack credit for flit 135028
Requeued flit 135028
Received nack credit for flit 135060
Requeued flit 135060
3
Received nack credit for flit 135232
Requeued flit 135232
3
Received nack credit for flit 135450
Requeued flit 135450
1
3
Received nack credit for flit 135611
Requeued flit 135611
5
Received nack credit for flit 135588
Requeued flit 135588
Received nack credit for flit 135606
Requeued flit 135606
11
Received nack credit for flit 135597
Requeued flit 135597
5
Received nack credit for flit 135798
Requeued flit 135798
7
Received nack credit for flit 136143
Requeued flit 136143
1
Received nack credit for flit 136445
Requeued flit 136445
1
Received nack credit for flit 136770
Requeued flit 136770
4
Received nack credit for flit 136765
Requeued flit 136765
6
Received nack credit for flit 136901
Requeued flit 136901
3
Received nack credit for flit 137002
Requeued flit 137002
2
Received nack credit for flit 137205
Requeued flit 137205
5
Received nack credit for flit 137384
Requeued flit 137384
7
Received nack credit for flit 137467
Requeued flit 137467
1
4
3
4
Received nack credit for flit 137631
Requeued flit 137631
Received nack credit for flit 137670
Requeued flit 137670
Received nack credit for flit 137600
Requeued flit 137600
Received nack credit for flit 137629
Requeued flit 137629
1
Received nack credit for flit 137813
Requeued flit 137813
2
Received nack credit for flit 138087
Requeued flit 138087
7
4
Received nack credit for flit 138365
Requeued flit 138365
Received nack credit for flit 138282
Requeued flit 138282
2
Received nack credit for flit 138729
Requeued flit 138729
1
4
6
Received nack credit for flit 138808
Requeued flit 138808
Received nack credit for flit 138775
Requeued flit 138775
Received nack credit for flit 138855
Requeued flit 138855
1
Received nack credit for flit 139381
Requeued flit 139381
6
Received nack credit for flit 140155
Requeued flit 140155
4
1
Received nack credit for flit 140436
Requeued flit 140436
Received nack credit for flit 140357
Requeued flit 140357
3
5
Received nack credit for flit 140439
Requeued flit 140439
Received nack credit for flit 140487
Requeued flit 140487
10
3
Received nack credit for flit 140525
Requeued flit 140525
1
2
Received nack credit for flit 140792
Requeued flit 140792
Received nack credit for flit 140819
Requeued flit 140819
Received nack credit for flit 140691
Requeued flit 140691
3
Received nack credit for flit 141211
Requeued flit 141211
6
7
1
Received nack credit for flit 141528
Requeued flit 141528
Received nack credit for flit 141542
Requeued flit 141542
1
Received nack credit for flit 141673
Requeued flit 141673
1
Received nack credit for flit 141731
Requeued flit 141731
3
3
Received nack credit for flit 141903
Requeued flit 141903
Received nack credit for flit 141941
Requeued flit 141941
Received nack credit for flit 141837
Requeued flit 141837
1
3
1
Received nack credit for flit 142125
Requeued flit 142125
Received nack credit for flit 142189
Requeued flit 142189
6
4
Received nack credit for flit 142133
Requeued flit 142133
Received nack credit for flit 142186
Requeued flit 142186
5
Received nack credit for flit 142279
Requeued flit 142279
3
Received nack credit for flit 142142
Requeued flit 142142
Received nack credit for flit 142462
Requeued flit 142462
4
Received nack credit for flit 142479
Requeued flit 142479
1
1
Received nack credit for flit 142929
Requeued flit 142929
Received nack credit for flit 142984
Requeued flit 142984
1
Received nack credit for flit 143083
Requeued flit 143083
1
Received nack credit for flit 143196
Requeued flit 143196
12
3
Received nack credit for flit 143124
Requeued flit 143124
Received nack credit for flit 143325
Requeued flit 143325
2
Received nack credit for flit 143475
Requeued flit 143475
3
Received nack credit for flit 143807
Requeued flit 143807
1
Received nack credit for flit 143876
Requeued flit 143876
5
Received nack credit for flit 144026
Requeued flit 144026
2
Received nack credit for flit 144429
Requeued flit 144429
2
Received nack credit for flit 144517
Requeued flit 144517
1
1
8
Received nack credit for flit 144855
Requeued flit 144855
Received nack credit for flit 144913
Requeued flit 144913
Received nack credit for flit 144756
Requeued flit 144756
3
5
Received nack credit for flit 145348
Requeued flit 145348
Received nack credit for flit 145379
Requeued flit 145379
3
Received nack credit for flit 145477
Requeued flit 145477
1
Received nack credit for flit 145585
Requeued flit 145585
8
6
Received nack credit for flit 145619
Requeued flit 145619
Received nack credit for flit 145737
Requeued flit 145737
1
Received nack credit for flit 146744
Requeued flit 146744
1
Received nack credit for flit 146800
Requeued flit 146800
2
5
Received nack credit for flit 146873
Requeued flit 146873
Received nack credit for flit 146853
Requeued flit 146853
1
Received nack credit for flit 147112
Requeued flit 147112
1
1
Received nack credit for flit 147587
Requeued flit 147587
Received nack credit for flit 147622
Requeued flit 147622
3
Received nack credit for flit 147988
Requeued flit 147988
6
5
Received nack credit for flit 148271
Requeued flit 148271
Received nack credit for flit 148190
Requeued flit 148190
1
Received nack credit for flit 148564
Requeued flit 148564
2
Received nack credit for flit 149239
Requeued flit 149239
4
Received nack credit for flit 149338
Requeued flit 149338
4
3
Received nack credit for flit 149618
Requeued flit 149618
Received nack credit for flit 149653
Requeued flit 149653
1
4
Received nack credit for flit 149877
Requeued flit 149877
Received nack credit for flit 149837
Requeued flit 149837
3
Received nack credit for flit 150187
Requeued flit 150187
3
Received nack credit for flit 150586
Requeued flit 150586
6
Received nack credit for flit 150599
Requeued flit 150599
3
1
6
Received nack credit for flit 150801
Requeued flit 150801
2
Received nack credit for flit 150735
Requeued flit 150735
Received nack credit for flit 150756
Requeued flit 150756
Received nack credit for flit 150854
Requeued flit 150854
3
Received nack credit for flit 150953
Requeued flit 150953
6
2
Received nack credit for flit 151091
Requeued flit 151091
1
3
Received nack credit for flit 151193
Requeued flit 151193
Received nack credit for flit 151217
Requeued flit 151217
Received nack credit for flit 151009
Requeued flit 151009
7
Received nack credit for flit 151308
Requeued flit 151308
6
2
Received nack credit for flit 152675
Requeued flit 152675
Received nack credit for flit 152586
Requeued flit 152586
1
2
Received nack credit for flit 153291
Requeued flit 153291
Received nack credit for flit 153305
Requeued flit 153305
1
Received nack credit for flit 153478
Requeued flit 153478
1
Received nack credit for flit 153718
Requeued flit 153718
1
1
Received nack credit for flit 154065
Requeued flit 154065
6
3
Received nack credit for flit 153962
Requeued flit 153962
Received nack credit for flit 154156
Requeued flit 154156
Received nack credit for flit 154234
Requeued flit 154234
6
Received nack credit for flit 154489
Requeued flit 154489
3
Received nack credit for flit 154654
Requeued flit 154654
1
2
Received nack credit for flit 155146
Requeued flit 155146
Received nack credit for flit 155200
Requeued flit 155200
2
Received nack credit for flit 155419
Requeued flit 155419
1
Received nack credit for flit 155529
Requeued flit 155529
2
Received nack credit for flit 155879
Requeued flit 155879
4
Received nack credit for flit 156161
Requeued flit 156161
1
Received nack credit for flit 156767
Requeued flit 156767
5
Received nack credit for flit 157134
Requeued flit 157134
2
Received nack credit for flit 157272
Requeued flit 157272
4
Received nack credit for flit 157308
Requeued flit 157308
6
Received nack credit for flit 157493
Requeued flit 157493
4
Received nack credit for flit 157821
Requeued flit 157821
1
Received nack credit for flit 158109
Requeued flit 158109
7
Received nack credit for flit 158136
Requeued flit 158136
2
5
Received nack credit for flit 158687
Requeued flit 158687
1
Received nack credit for flit 158671
Requeued flit 158671
Received nack credit for flit 158775
Requeued flit 158775
2
Received nack credit for flit 159032
Requeued flit 159032
1
1
3
Received nack credit for flit 159240
Requeued flit 159240
Received nack credit for flit 159215
Requeued flit 159215
Received nack credit for flit 159237
Requeued flit 159237
1
Received nack credit for flit 159318
Requeued flit 159318
4
9
3
Received nack credit for flit 159512
Requeued flit 159512
4
Received nack credit for flit 159575
Requeued flit 159575
Received nack credit for flit 159737
Requeued flit 159737
Received nack credit for flit 159728
Requeued flit 159728
5
1
Received nack credit for flit 160001
Requeued flit 160001
Received nack credit for flit 159812
Requeued flit 159812
1
2
Received nack credit for flit 160082
Requeued flit 160082
Received nack credit for flit 160088
Requeued flit 160088
3
Received nack credit for flit 160129
Requeued flit 160129
1
3
Received nack credit for flit 160277
Requeued flit 160277
Received nack credit for flit 160307
Requeued flit 160307
3
Received nack credit for flit 160970
Requeued flit 160970
1
2
Received nack credit for flit 161151
Requeued flit 161151
Received nack credit for flit 161143
Requeued flit 161143
5
Received nack credit for flit 161469
Requeued flit 161469
5
Received nack credit for flit 161613
Requeued flit 161613
4
Received nack credit for flit 161747
Requeued flit 161747
2
1
Received nack credit for flit 161940
Requeued flit 161940
Received nack credit for flit 161998
Requeued flit 161998
1
Received nack credit for flit 162675
Requeued flit 162675
1
Received nack credit for flit 162781
Requeued flit 162781
10
5
Received nack credit for flit 162725
Requeued flit 162725
Received nack credit for flit 162855
Requeued flit 162855
1
Received nack credit for flit 163100
Requeued flit 163100
1
Received nack credit for flit 163196
Requeued flit 163196
2
Received nack credit for flit 163427
Requeued flit 163427
1
2
Received nack credit for flit 163812
Requeued flit 163812
1
Received nack credit for flit 163815
Requeued flit 163815
Received nack credit for flit 163881
Requeued flit 163881
2
Received nack credit for flit 164045
Requeued flit 164045
1
Received nack credit for flit 164242
Requeued flit 164242
5
Received nack credit for flit 164276
Requeued flit 164276
1
Received nack credit for flit 164549
Requeued flit 164549
1
Received nack credit for flit 165121
Requeued flit 165121
4
Received nack credit for flit 165355
Requeued flit 165355
1
1
3
Received nack credit for flit 165776
Requeued flit 165776
Received nack credit for flit 165760
Requeued flit 165760
Received nack credit for flit 165780
Requeued flit 165780
6
Received nack credit for flit 166257
Requeued flit 166257
3
Received nack credit for flit 166399
Requeued flit 166399
3
3
Received nack credit for flit 166564
Requeued flit 166564
Received nack credit for flit 166560
Requeued flit 166560
1
Received nack credit for flit 167006
Requeued flit 167006
7
Received nack credit for flit 167003
Requeued flit 167003
7
Received nack credit for flit 167148
Requeued flit 167148
5
Received nack credit for flit 167442
Requeued flit 167442
6
5
Received nack credit for flit 167694
Requeued flit 167694
Received nack credit for flit 167751
Requeued flit 167751
9
2
Received nack credit for flit 167931
Requeued flit 167931
Received nack credit for flit 168145
Requeued flit 168145
5
1
1
Received nack credit for flit 168316
Requeued flit 168316
Received nack credit for flit 168407
Requeued flit 168407
3
Received nack credit for flit 168397
Requeued flit 168397
Received nack credit for flit 168432
Requeued flit 168432
5
Received nack credit for flit 168483
Requeued flit 168483
3
8
1
1
Received nack credit for flit 168843
Requeued flit 168843
Received nack credit for flit 168811
Requeued flit 168811
Received nack credit for flit 168956
Requeued flit 168956
Received nack credit for flit 168957
Requeued flit 168957
6
Received nack credit for flit 169172
Requeued flit 169172
3
Received nack credit for flit 169315
Requeued flit 169315
1
1
Received nack credit for flit 169555
Requeued flit 169555
5
3
Received nack credit for flit 169542
Requeued flit 169542
Received nack credit for flit 169603
Requeued flit 169603
1
Received nack credit for flit 169561
Requeued flit 169561
Received nack credit for flit 169711
Requeued flit 169711
2
1
Received nack credit for flit 169791
Requeued flit 169791
Received nack credit for flit 169852
Requeued flit 169852
5
Received nack credit for flit 169864
Requeued flit 169864
1
10
Received nack credit for flit 170142
Requeued flit 170142
1
Received nack credit for flit 170022
Requeued flit 170022
2
Received nack credit for flit 170269
Requeued flit 170269
4
Received nack credit for flit 170243
Requeued flit 170243
Received nack credit for flit 170390
Requeued flit 170390
2
1
Received nack credit for flit 170471
Requeued flit 170471
Received nack credit for flit 170546
Requeued flit 170546
3
Received nack credit for flit 171418
Requeued flit 171418
8
Received nack credit for flit 171604
Requeued flit 171604
1
3
Received nack credit for flit 171802
Requeued flit 171802
Received nack credit for flit 171817
Requeued flit 171817
3
Received nack credit for flit 172197
Requeued flit 172197
3
Received nack credit for flit 172388
Requeued flit 172388
4
Received nack credit for flit 172537
Requeued flit 172537
3
Received nack credit for flit 172781
Requeued flit 172781
1
Received nack credit for flit 172963
Requeued flit 172963
5
Received nack credit for flit 172947
Requeued flit 172947
6
1
Received nack credit for flit 173477
Requeued flit 173477
Received nack credit for flit 173189
Requeued flit 173189
1
Received nack credit for flit 173730
Requeued flit 173730
2
Received nack credit for flit 173804
Requeued flit 173804
1
Received nack credit for flit 174100
Requeued flit 174100
2
5
Received nack credit for flit 174238
Requeued flit 174238
Received nack credit for flit 174205
Requeued flit 174205
1
2
Received nack credit for flit 174409
Requeued flit 174409
Received nack credit for flit 174416
Requeued flit 174416
1
Received nack credit for flit 174724
Requeued flit 174724
3
Received nack credit for flit 174944
Requeued flit 174944
1
Received nack credit for flit 175335
Requeued flit 175335
6
Received nack credit for flit 175465
Requeued flit 175465
2
Received nack credit for flit 175620
Requeued flit 175620
1
1
Received nack credit for flit 175706
Requeued flit 175706
Received nack credit for flit 175723
Requeued flit 175723
10
1
Received nack credit for flit 175719
Requeued flit 175719
Received nack credit for flit 175940
Requeued flit 175940
1
1
Received nack credit for flit 176136
Requeued flit 176136
1
Received nack credit for flit 176214
Requeued flit 176214
Received nack credit for flit 176200
Requeued flit 176200
6
Received nack credit for flit 176560
Requeued flit 176560
1
Received nack credit for flit 176778
Requeued flit 176778
3
Received nack credit for flit 176778
Requeued flit 176778
5
1
Received nack credit for flit 177067
Requeued flit 177067
Received nack credit for flit 176977
Requeued flit 176977
4
Received nack credit for flit 177120
Requeued flit 177120
5
Received nack credit for flit 177168
Requeued flit 177168
1
Received nack credit for flit 177402
Requeued flit 177402
5
Received nack credit for flit 177397
Requeued flit 177397
3
7
Received nack credit for flit 177779
Requeued flit 177779
Received nack credit for flit 177737
Requeued flit 177737
4
Received nack credit for flit 177867
Requeued flit 177867
6
6
3
Received nack credit for flit 177990
Requeued flit 177990
Received nack credit for flit 177912
Requeued flit 177912
1
Received nack credit for flit 178363
Requeued flit 178363
1
Received nack credit for flit 178577
Requeued flit 178577
2
Received nack credit for flit 178621
Requeued flit 178621
2
1
5
Received nack credit for flit 178907
Requeued flit 178907
Received nack credit for flit 178897
Requeued flit 178897
Received nack credit for flit 178961
Requeued flit 178961
1
Received nack credit for flit 179385
Requeued flit 179385
6
Received nack credit for flit 179427
Requeued flit 179427
2
Received nack credit for flit 179558
Requeued flit 179558
1
Received nack credit for flit 179806
Requeued flit 179806
4
3
8
Received nack credit for flit 179805
Requeued flit 179805
Received nack credit for flit 179848
Requeued flit 179848
Received nack credit for flit 179776
Requeued flit 179776
9
Received nack credit for flit 179842
Requeued flit 179842
9
1
Received nack credit for flit 179937
Requeued flit 179937
Received nack credit for flit 180130
Requeued flit 180130
6
Received nack credit for flit 180235
Requeued flit 180235
1
1
Received nack credit for flit 180446
Requeued flit 180446
Received nack credit for flit 180411
Requeued flit 180411
1
Received nack credit for flit 180530
Requeued flit 180530
2
Received nack credit for flit 180595
Requeued flit 180595
4
1
Received nack credit for flit 180742
Requeued flit 180742
1
Received nack credit for flit 180816
Requeued flit 180816
Received nack credit for flit 180934
Requeued flit 180934
1
Received nack credit for flit 180999
Requeued flit 180999
1
2
Received nack credit for flit 181199
Requeued flit 181199
Received nack credit for flit 181213
Requeued flit 181213
3
Received nack credit for flit 181309
Requeued flit 181309
4
6
Received nack credit for flit 181851
Requeued flit 181851
1
Received nack credit for flit 181836
Requeued flit 181836
Received nack credit for flit 181989
Requeued flit 181989
4
7
9
Received nack credit for flit 182276
Requeued flit 182276
Received nack credit for flit 182250
Requeued flit 182250
Received nack credit for flit 182328
Requeued flit 182328
3
Received nack credit for flit 182679
Requeued flit 182679
2
Received nack credit for flit 183289
Requeued flit 183289
1
1
5
2
1
Received nack credit for flit 184081
Requeued flit 184081
Received nack credit for flit 184283
Requeued flit 184283
Received nack credit for flit 184303
Requeued flit 184303
Received nack credit for flit 184378
Requeued flit 184378
Received nack credit for flit 184355
Requeued flit 184355
3
1
Received nack credit for flit 184643
Requeued flit 184643
Received nack credit for flit 184611
Requeued flit 184611
2
Received nack credit for flit 184989
Requeued flit 184989
4
2
Received nack credit for flit 185059
Requeued flit 185059
Received nack credit for flit 185135
Requeued flit 185135
12
Received nack credit for flit 185048
Requeued flit 185048
2
4
Received nack credit for flit 185422
Requeued flit 185422
Received nack credit for flit 185445
Requeued flit 185445
9
1
Received nack credit for flit 185588
Requeued flit 185588
Received nack credit for flit 185759
Requeued flit 185759
1
Received nack credit for flit 185833
Requeued flit 185833
1
Received nack credit for flit 186017
Requeued flit 186017
5
Received nack credit for flit 186093
Requeued flit 186093
4
Received nack credit for flit 186194
Requeued flit 186194
5
2
1
2
Received nack credit for flit 186383
Requeued flit 186383
Received nack credit for flit 186470
Requeued flit 186470
Received nack credit for flit 186504
Requeued flit 186504
Received nack credit for flit 186507
Requeued flit 186507
3
Received nack credit for flit 186607
Requeued flit 186607
2
Received nack credit for flit 186732
Requeued flit 186732
1
1
Received nack credit for flit 186814
Requeued flit 186814
1
Received nack credit for flit 186860
Requeued flit 186860
Received nack credit for flit 187025
Requeued flit 187025
1
Received nack credit for flit 187168
Requeued flit 187168
3
Received nack credit for flit 187253
Requeued flit 187253
1
2
Received nack credit for flit 187820
Requeued flit 187820
Received nack credit for flit 187807
Requeued flit 187807
2
4
Received nack credit for flit 188163
Requeued flit 188163
7
Received nack credit for flit 188192
Requeued flit 188192
3
Received nack credit for flit 188166
Requeued flit 188166
Received nack credit for flit 188286
Requeued flit 188286
8
Received nack credit for flit 188559
Requeued flit 188559
2
Received nack credit for flit 188951
Requeued flit 188951
1
Received nack credit for flit 189327
Requeued flit 189327
3
Received nack credit for flit 189477
Requeued flit 189477
3
4
Received nack credit for flit 189524
Requeued flit 189524
Received nack credit for flit 189537
Requeued flit 189537
6
5
Received nack credit for flit 189934
Requeued flit 189934
Received nack credit for flit 190033
Requeued flit 190033
5
3
Received nack credit for flit 190263
Requeued flit 190263
Received nack credit for flit 190350
Requeued flit 190350
1
Received nack credit for flit 190480
Requeued flit 190480
4
Received nack credit for flit 190560
Requeued flit 190560
10
Received nack credit for flit 190640
Requeued flit 190640
7
Received nack credit for flit 190790
Requeued flit 190790
4
Received nack credit for flit 190952
Requeued flit 190952
3
Received nack credit for flit 191057
Requeued flit 191057
Class 0:
Packet latency average = 21.0187
	minimum = 5
	maximum = 83
Network latency average = 21.0187
	minimum = 5
	maximum = 83
Slowest packet = 173189
Flit latency average = 21.0187
	minimum = 5
	maximum = 83
Slowest flit = 173189
Fragmentation average = 0
	minimum = 0
	maximum = 0
Injected packet rate average = 0.0995266
	minimum = 0.0926 (at node 54)
	maximum = 0.106 (at node 2)
Accepted packet rate average = 0.0995578
	minimum = 0.093 (at node 38)
	maximum = 0.1058 (at node 8)
Injected flit rate average = 0.0995266
	minimum = 0.0926 (at node 54)
	maximum = 0.106 (at node 2)
Accepted flit rate average= 0.0995578
	minimum = 0.093 (at node 38)
	maximum = 0.1058 (at node 8)
Injected packet length average = 1
Accepted packet length average = 1
Total in-flight flits = 132 (0 measured)
latency change    = 0.00184806
throughput change = 0.00231492
Warmed up ...Time used is 30000 cycles
1
Received nack credit for flit 191618
Requeued flit 191618
4
Received nack credit for flit 192028
Requeued flit 192028
6
Received nack credit for flit 192204
Requeued flit 192204
1
Received nack credit for flit 192596
Requeued flit 192596
2
6
Received nack credit for flit 192618
Requeued flit 192618
Received nack credit for flit 192548
Requeued flit 192548
8
10
1
Received nack credit for flit 192848
Requeued flit 192848
Received nack credit for flit 192678
Requeued flit 192678
Received nack credit for flit 192648
Requeued flit 192648
3
Received nack credit for flit 193112
Requeued flit 193112
3
Received nack credit for flit 193325
Requeued flit 193325
1
Received nack credit for flit 193646
Requeued flit 193646
8
1
Received nack credit for flit 193732
Requeued flit 193732
Received nack credit for flit 193589
Requeued flit 193589
3
Received nack credit for flit 193902
Requeued flit 193902
6
1
Received nack credit for flit 194141
Requeued flit 194141
Received nack credit for flit 193975
Requeued flit 193975
5
Received nack credit for flit 194234
Requeued flit 194234
4
Received nack credit for flit 194354
Requeued flit 194354
5
Received nack credit for flit 194573
Requeued flit 194573
6
Received nack credit for flit 194608
Requeued flit 194608
7
Received nack credit for flit 194764
Requeued flit 194764
4
1
Received nack credit for flit 194957
Requeued flit 194957
6
3
Received nack credit for flit 195113
Requeued flit 195113
Received nack credit for flit 195024
Requeued flit 195024
1
Received nack credit for flit 195267
Requeued flit 195267
Received nack credit for flit 195065
Requeued flit 195065
1
Received nack credit for flit 195490
Requeued flit 195490
3
Received nack credit for flit 195675
Requeued flit 195675
5
Received nack credit for flit 196029
Requeued flit 196029
1
Received nack credit for flit 196340
Requeued flit 196340
3
Received nack credit for flit 197181
Requeued flit 197181
6
Received nack credit for flit 197253
Requeued flit 197253
7
Received nack credit for flit 197677
Requeued flit 197677
1
Received nack credit for flit 197878
Requeued flit 197878
8
6
Received nack credit for flit 197799
Requeued flit 197799
Received nack credit for flit 197887
Requeued flit 197887
2
Received nack credit for flit 198198
Requeued flit 198198
1
Received nack credit for flit 198315
Requeued flit 198315
7
Received nack credit for flit 198765
Requeued flit 198765
4
Received nack credit for flit 199034
Requeued flit 199034
1
Received nack credit for flit 199162
Requeued flit 199162
7
Received nack credit for flit 199112
Requeued flit 199112
7
Received nack credit for flit 199222
Requeued flit 199222
4
Received nack credit for flit 199470
Requeued flit 199470
1
Received nack credit for flit 199697
Requeued flit 199697
1
1
Received nack credit for flit 199894
Requeued flit 199894
Received nack credit for flit 199863
Requeued flit 199863
1
Received nack credit for flit 200111
Requeued flit 200111
3
6
Received nack credit for flit 200195
Requeued flit 200195
5
Received nack credit for flit 200176
Requeued flit 200176
Received nack credit for flit 200240
[...]
3
Received nack credit for flit 333289
Requeued flit 333289
2
4
2
Received nack credit for flit 333985
Requeued flit 333985
9
5
Received nack credit for flit 334021
Requeued flit 334021
Received nack credit for flit 333959
Requeued flit 333959
Received nack credit for flit 333925
Requeued flit 333925
2
Received nack credit for flit 334026
Requeued flit 334026
Received nack credit for flit 334170
Requeued flit 334170
1
Received nack credit for flit 334353
Requeued flit 334353
5
Received nack credit for flit 334340
Requeued flit 334340
2
Received nack credit for flit 334518
Requeued flit 334518
2
Received nack credit for flit 334610
Requeued flit 334610
3
Received nack credit for flit 334815
Requeued flit 334815
1
Received nack credit for flit 335121
Requeued flit 335121
5
Received nack credit for flit 335304
Requeued flit 335304
6
Received nack credit for flit 335375
Requeued flit 335375
2
Received nack credit for flit 335973
Requeued flit 335973
5
Received nack credit for flit 335955
Requeued flit 335955
3
Received nack credit for flit 336130
Requeued flit 336130
3
7
Received nack credit for flit 336763
Requeued flit 336763
Received nack credit for flit 336704
Requeued flit 336704
3
Received nack credit for flit 336890
Requeued flit 336890
1
Received nack credit for flit 337464
Requeued flit 337464
3
Received nack credit for flit 337548
Requeued flit 337548
3
Received nack credit for flit 337844
Requeued flit 337844
9
Received nack credit for flit 338366
Requeued flit 338366
2
Received nack credit for flit 338641
Requeued flit 338641
3
Received nack credit for flit 338845
Requeued flit 338845
7
Received nack credit for flit 338868
Requeued flit 338868
3
1
Received nack credit for flit 339109
Requeued flit 339109
Received nack credit for flit 339177
Requeued flit 339177
3
Received nack credit for flit 339307
Requeued flit 339307
1
Received nack credit for flit 339535
Requeued flit 339535
5
4
Received nack credit for flit 339872
Requeued flit 339872
3
Received nack credit for flit 340129
Requeued flit 340129
Received nack credit for flit 339960
Requeued flit 339960
2
4
Received nack credit for flit 340264
Requeued flit 340264
6
Received nack credit for flit 340273
Requeued flit 340273
Received nack credit for flit 340303
Requeued flit 340303
7
1
Received nack credit for flit 340529
Requeued flit 340529
Received nack credit for flit 340424
Requeued flit 340424
1
1
Received nack credit for flit 340585
Requeued flit 340585
Received nack credit for flit 340621
Requeued flit 340621
1
Received nack credit for flit 340819
Requeued flit 340819
3
Received nack credit for flit 340875
Requeued flit 340875
3
Received nack credit for flit 341015
Requeued flit 341015
1
Received nack credit for flit 341408
Requeued flit 341408
3
4
Received nack credit for flit 341728
Requeued flit 341728
Received nack credit for flit 341738
Requeued flit 341738
6
Received nack credit for flit 342048
Requeued flit 342048
2
Received nack credit for flit 342490
Requeued flit 342490
5
6
Received nack credit for flit 342500
Requeued flit 342500
Received nack credit for flit 342508
Requeued flit 342508
4
6
Received nack credit for flit 342861
Requeued flit 342861
2
Received nack credit for flit 342915
Requeued flit 342915
Received nack credit for flit 343096
Requeued flit 343096
1
4
Received nack credit for flit 343266
Requeued flit 343266
1
6
Received nack credit for flit 343445
Requeued flit 343445
Received nack credit for flit 343297
Requeued flit 343297
8
Received nack credit for flit 343375
Requeued flit 343375
Received nack credit for flit 343408
Requeued flit 343408
1
1
Received nack credit for flit 343607
Requeued flit 343607
Received nack credit for flit 343633
Requeued flit 343633
3
Received nack credit for flit 343744
Requeued flit 343744
4
Received nack credit for flit 343818
Requeued flit 343818
3
Received nack credit for flit 343947
Requeued flit 343947
5
1
Received nack credit for flit 344059
Requeued flit 344059
Received nack credit for flit 344132
Requeued flit 344132
2
2
Received nack credit for flit 344390
Requeued flit 344390
Received nack credit for flit 344413
Requeued flit 344413
1
Received nack credit for flit 344769
Requeued flit 344769
1
Received nack credit for flit 344868
Requeued flit 344868
1
1
Received nack credit for flit 344944
Requeued flit 344944
Received nack credit for flit 344972
Requeued flit 344972
4
Received nack credit for flit 345544
Requeued flit 345544
1
Received nack credit for flit 345826
Requeued flit 345826
4
Received nack credit for flit 346203
Requeued flit 346203
3
2
Received nack credit for flit 346482
Requeued flit 346482
1
2
7
Received nack credit for flit 346611
Requeued flit 346611
Received nack credit for flit 346620
Requeued flit 346620
Received nack credit for flit 346411
Requeued flit 346411
1
Received nack credit for flit 346528
Requeued flit 346528
Received nack credit for flit 346714
Requeued flit 346714
5
3
5
Received nack credit for flit 346907
Requeued flit 346907
Received nack credit for flit 346790
Requeued flit 346790
Received nack credit for flit 346894
Requeued flit 346894
5
Received nack credit for flit 347776
Requeued flit 347776
8
Received nack credit for flit 347940
Requeued flit 347940
1
Received nack credit for flit 348437
Requeued flit 348437
1
Received nack credit for flit 348615
Requeued flit 348615
7
Received nack credit for flit 349227
Requeued flit 349227
2
Received nack credit for flit 349454
Requeued flit 349454
2
Received nack credit for flit 349587
Requeued flit 349587
8
Received nack credit for flit 349661
Requeued flit 349661
4
Received nack credit for flit 349944
Requeued flit 349944
2
Received nack credit for flit 350395
Requeued flit 350395
2
Received nack credit for flit 350563
Requeued flit 350563
4
Received nack credit for flit 351280
Requeued flit 351280
2
Received nack credit for flit 351442
Requeued flit 351442
3
6
Received nack credit for flit 351820
Requeued flit 351820
Received nack credit for flit 351769
Requeued flit 351769
1
3
Received nack credit for flit 352014
Requeued flit 352014
Received nack credit for flit 352035
Requeued flit 352035
1
Received nack credit for flit 352141
Requeued flit 352141
4
Received nack credit for flit 352198
Requeued flit 352198
5
Received nack credit for flit 352445
Requeued flit 352445
5
Received nack credit for flit 352512
Requeued flit 352512
1
4
Received nack credit for flit 352830
Requeued flit 352830
Received nack credit for flit 352787
Requeued flit 352787
2
4
Received nack credit for flit 353205
Requeued flit 353205
Received nack credit for flit 353217
Requeued flit 353217
1
Received nack credit for flit 353397
Requeued flit 353397
1
Received nack credit for flit 353518
Requeued flit 353518
4
1
Received nack credit for flit 353707
Requeued flit 353707
Received nack credit for flit 353814
Requeued flit 353814
2
3
Received nack credit for flit 354181
Requeued flit 354181
5
Received nack credit for flit 354167
Requeued flit 354167
Received nack credit for flit 354180
Requeued flit 354180
4
1
Received nack credit for flit 354475
Requeued flit 354475
Received nack credit for flit 354558
Requeued flit 354558
1
Received nack credit for flit 354897
Requeued flit 354897
1
Received nack credit for flit 354988
Requeued flit 354988
1
6
Received nack credit for flit 355031
Requeued flit 355031
Received nack credit for flit 354961
Requeued flit 354961
2
5
1
Received nack credit for flit 355260
Requeued flit 355260
Received nack credit for flit 355281
Requeued flit 355281
Received nack credit for flit 355361
Requeued flit 355361
7
2
1
Received nack credit for flit 355309
Requeued flit 355309
Received nack credit for flit 355442
Requeued flit 355442
Received nack credit for flit 355478
Requeued flit 355478
7
Received nack credit for flit 355698
Requeued flit 355698
1
Received nack credit for flit 356062
Requeued flit 356062
3
Received nack credit for flit 356087
Requeued flit 356087
3
Received nack credit for flit 356283
Requeued flit 356283
9
Received nack credit for flit 356570
Requeued flit 356570
1
4
Received nack credit for flit 357064
Requeued flit 357064
Received nack credit for flit 357020
Requeued flit 357020
4
1
Received nack credit for flit 357603
Requeued flit 357603
1
Received nack credit for flit 357732
Requeued flit 357732
Received nack credit for flit 357773
Requeued flit 357773
1
Received nack credit for flit 358167
Requeued flit 358167
2
Received nack credit for flit 358335
Requeued flit 358335
1
Received nack credit for flit 358603
Requeued flit 358603
1
1
4
Received nack credit for flit 358776
Requeued flit 358776
Received nack credit for flit 358799
Requeued flit 358799
Received nack credit for flit 358753
Requeued flit 358753
7
Received nack credit for flit 359064
Requeued flit 359064
3
7
Received nack credit for flit 359335
Requeued flit 359335
Received nack credit for flit 359330
Requeued flit 359330
3
Received nack credit for flit 359716
Requeued flit 359716
6
Received nack credit for flit 359813
Requeued flit 359813
1
3
4
Received nack credit for flit 360254
Requeued flit 360254
Received nack credit for flit 360205
Requeued flit 360205
2
Received nack credit for flit 360268
Requeued flit 360268
Received nack credit for flit 360337
Requeued flit 360337
6
Received nack credit for flit 360451
Requeued flit 360451
3
Received nack credit for flit 360534
Requeued flit 360534
2
Received nack credit for flit 361098
Requeued flit 361098
5
5
Received nack credit for flit 361225
Requeued flit 361225
Received nack credit for flit 361242
Requeued flit 361242
1
Received nack credit for flit 361749
Requeued flit 361749
2
Received nack credit for flit 361869
Requeued flit 361869
5
Received nack credit for flit 362166
Requeued flit 362166
1
1
8
Received nack credit for flit 362616
Requeued flit 362616
Received nack credit for flit 362655
Requeued flit 362655
5
Received nack credit for flit 362558
Requeued flit 362558
Received nack credit for flit 362681
Requeued flit 362681
2
Received nack credit for flit 362887
Requeued flit 362887
3
Received nack credit for flit 362924
Requeued flit 362924
2
2
Received nack credit for flit 363110
Requeued flit 363110
Received nack credit for flit 363138
Requeued flit 363138
6
2
Received nack credit for flit 363407
Requeued flit 363407
1
Received nack credit for flit 363316
Requeued flit 363316
1
3
Received nack credit for flit 363474
Requeued flit 363474
Received nack credit for flit 363507
Requeued flit 363507
Received nack credit for flit 363537
Requeued flit 363537
4
Received nack credit for flit 363932
Requeued flit 363932
5
Received nack credit for flit 364146
Requeued flit 364146
2
Received nack credit for flit 364469
Requeued flit 364469
4
Received nack credit for flit 364463
Requeued flit 364463
2
Received nack credit for flit 364639
Requeued flit 364639
1
7
3
Received nack credit for flit 364774
Requeued flit 364774
Received nack credit for flit 364667
Requeued flit 364667
Received nack credit for flit 364777
Requeued flit 364777
3
1
Received nack credit for flit 364870
Requeued flit 364870
Received nack credit for flit 364951
Requeued flit 364951
8
Received nack credit for flit 364976
Requeued flit 364976
11
Received nack credit for flit 365066
Requeued flit 365066
4
Received nack credit for flit 365556
Requeued flit 365556
2
Received nack credit for flit 366081
Requeued flit 366081
5
Received nack credit for flit 366095
Requeued flit 366095
2
Received nack credit for flit 366463
Requeued flit 366463
2
Received nack credit for flit 366682
Requeued flit 366682
1
Received nack credit for flit 366773
Requeued flit 366773
8
1
2
Received nack credit for flit 367132
Requeued flit 367132
5
Received nack credit for flit 366974
Requeued flit 366974
Received nack credit for flit 367171
Requeued flit 367171
Received nack credit for flit 367127
Requeued flit 367127
3
4
Received nack credit for flit 367776
Requeued flit 367776
Received nack credit for flit 367762
Requeued flit 367762
2
4
Received nack credit for flit 368048
Requeued flit 368048
Received nack credit for flit 368090
Requeued flit 368090
3
6
Received nack credit for flit 368363
Requeued flit 368363
1
Received nack credit for flit 368306
Requeued flit 368306
3
3
Received nack credit for flit 368481
Requeued flit 368481
Received nack credit for flit 368492
Requeued flit 368492
Received nack credit for flit 368451
Requeued flit 368451
1
Received nack credit for flit 368774
Requeued flit 368774
1
5
Received nack credit for flit 368855
Requeued flit 368855
Received nack credit for flit 368846
Requeued flit 368846
2
2
Received nack credit for flit 369399
Requeued flit 369399
Received nack credit for flit 369437
Requeued flit 369437
4
8
Received nack credit for flit 369853
Requeued flit 369853
Received nack credit for flit 369832
Requeued flit 369832
1
Received nack credit for flit 370640
Requeued flit 370640
8
Received nack credit for flit 370579
Requeued flit 370579
4
2
Received nack credit for flit 370891
Requeued flit 370891
Received nack credit for flit 370945
Requeued flit 370945
1
4
Received nack credit for flit 371026
Requeued flit 371026
Received nack credit for flit 370998
Requeued flit 370998
3
Received nack credit for flit 371085
Requeued flit 371085
4
Received nack credit for flit 371496
Requeued flit 371496
1
Received nack credit for flit 371609
Requeued flit 371609
1
Received nack credit for flit 372020
Requeued flit 372020
1
7
6
Received nack credit for flit 372067
Requeued flit 372067
Received nack credit for flit 372112
Requeued flit 372112
Received nack credit for flit 372111
Requeued flit 372111
1
8
Received nack credit for flit 372226
Requeued flit 372226
Received nack credit for flit 372357
Requeued flit 372357
2
Received nack credit for flit 372422
Requeued flit 372422
1
Received nack credit for flit 372715
Requeued flit 372715
4
Received nack credit for flit 372868
Requeued flit 372868
6
3
Received nack credit for flit 373057
Requeued flit 373057
Received nack credit for flit 373128
Requeued flit 373128
1
5
4
Received nack credit for flit 373414
Requeued flit 373414
Received nack credit for flit 373429
Requeued flit 373429
Received nack credit for flit 373442
Requeued flit 373442
1
5
Received nack credit for flit 373570
Requeued flit 373570
Received nack credit for flit 373614
Requeued flit 373614
3
Received nack credit for flit 373756
Requeued flit 373756
1
Received nack credit for flit 373953
Requeued flit 373953
2
Received nack credit for flit 374086
Requeued flit 374086
4
Received nack credit for flit 374160
Requeued flit 374160
1
3
Received nack credit for flit 374387
Requeued flit 374387
6
Received nack credit for flit 374375
Requeued flit 374375
Received nack credit for flit 374336
Requeued flit 374336
1
Received nack credit for flit 374481
Requeued flit 374481
5
Received nack credit for flit 374780
Requeued flit 374780
2
3
Received nack credit for flit 375154
Requeued flit 375154
Received nack credit for flit 375204
Requeued flit 375204
1
Received nack credit for flit 375389
Requeued flit 375389
1
1
13
Received nack credit for flit 375411
Requeued flit 375411
Received nack credit for flit 375579
Requeued flit 375579
2
Received nack credit for flit 375686
Requeued flit 375686
2
3
Received nack credit for flit 375772
Requeued flit 375772
Received nack credit for flit 375780
Requeued flit 375780
9
Received nack credit for flit 375955
Requeued flit 375955
3
1
Received nack credit for flit 376258
Requeued flit 376258
Received nack credit for flit 376329
Requeued flit 376329
1
1
4
Received nack credit for flit 376552
Requeued flit 376552
Received nack credit for flit 376521
Requeued flit 376521
Received nack credit for flit 376557
Requeued flit 376557
10
Received nack credit for flit 376597
Requeued flit 376597
5
5
Received nack credit for flit 376877
Requeued flit 376877
Received nack credit for flit 376916
Requeued flit 376916
1
Received nack credit for flit 377311
Requeued flit 377311
3
1
Received nack credit for flit 377552
Requeued flit 377552
Received nack credit for flit 377699
Requeued flit 377699
2
1
Received nack credit for flit 378173
Requeued flit 378173
Received nack credit for flit 378122
Requeued flit 378122
2
Received nack credit for flit 378306
Requeued flit 378306
4
1
Received nack credit for flit 378509
Requeued flit 378509
Received nack credit for flit 378563
Requeued flit 378563
1
Received nack credit for flit 378652
Requeued flit 378652
4
Received nack credit for flit 379297
Requeued flit 379297
4
3
Received nack credit for flit 379597
Requeued flit 379597
Received nack credit for flit 379537
Requeued flit 379537
5
5
Received nack credit for flit 379784
Requeued flit 379784
Received nack credit for flit 379746
Requeued flit 379746
1
1
Received nack credit for flit 380747
Requeued flit 380747
Received nack credit for flit 380771
Requeued flit 380771
1
5
Received nack credit for flit 380888
Requeued flit 380888
Received nack credit for flit 380877
Requeued flit 380877
1
Received nack credit for flit 381108
Requeued flit 381108
5
Received nack credit for flit 381076
Requeued flit 381076
5
Received nack credit for flit 381177
Requeued flit 381177
3
1
Received nack credit for flit 381348
Requeued flit 381348
Received nack credit for flit 381410
Requeued flit 381410
5
7
Received nack credit for flit 381849
Requeued flit 381849
1
5
Received nack credit for flit 382076
Requeued flit 382076
4
Received nack credit for flit 382087
Requeued flit 382087
Received nack credit for flit 382126
Requeued flit 382126
3
Received nack credit for flit 381830
Requeued flit 381830
Received nack credit for flit 382320
Requeued flit 382320
5
Received nack credit for flit 382540
Requeued flit 382540
1
Received nack credit for flit 382670
Requeued flit 382670
1
Received nack credit for flit 382836
Requeued flit 382836
1
Class 0:
Packet latency average = 21.0566
	minimum = 5
	maximum = 96
Network latency average = 21.0566
	minimum = 5
	maximum = 96
Slowest packet = 381830
Flit latency average = 21.0586
	minimum = 5
	maximum = 96
Slowest flit = 381830
Fragmentation average = 0
	minimum = 0
	maximum = 0
Injected packet rate average = 0.0997833
	minimum = 0.0966667 (at node 21)
	maximum = 0.1045 (at node 49)
Accepted packet rate average = 0.0997859
	minimum = 0.0947333 (at node 21)
	maximum = 0.104933 (at node 52)
Injected flit rate average = 0.0997833
	minimum = 0.0966667 (at node 21)
	maximum = 0.1045 (at node 49)
Accepted flit rate average= 0.0997859
	minimum = 0.0947333 (at node 21)
	maximum = 0.104933 (at node 52)
Injected packet length average = 1
Accepted packet length average = 1
Total in-flight flits = 127 (127 measured)
latency change    = 0.000438025
throughput change = 0.000156585
Draining all recorded packets ...
Received nack credit for flit 383038
Requeued flit 383038
2
6
Received nack credit for flit 383228
Requeued flit 383228
Draining remaining packets ...
Received nack credit for flit 383164
Requeued flit 383164
Time taken is 60078 cycles
====== Overall Traffic Statistics ======
====== Traffic class 0 ======
Packet latency average = 21.0587 (1 samples)
	minimum = 5 (1 samples)
	maximum = 96 (1 samples)
Network latency average = 21.0587 (1 samples)
	minimum = 5 (1 samples)
	maximum = 96 (1 samples)
Flit latency average = 21.0614 (1 samples)
	minimum = 5 (1 samples)
	maximum = 96 (1 samples)
Fragmentation average = 0 (1 samples)
	minimum = 0 (1 samples)
	maximum = 0 (1 samples)
Injected packet rate average = 0.0997833 (1 samples)
	minimum = 0.0966667 (1 samples)
	maximum = 0.1045 (1 samples)
Accepted packet rate average = 0.0997859 (1 samples)
	minimum = 0.0947333 (1 samples)
	maximum = 0.104933 (1 samples)
Injected flit rate average = 0.0997833 (1 samples)
	minimum = 0.0966667 (1 samples)
	maximum = 0.1045 (1 samples)
Accepted flit rate average = 0.0997859 (1 samples)
	minimum = 0.0947333 (1 samples)
	maximum = 0.104933 (1 samples)
Injected packet size average = 1 (1 samples)
Accepted packet size average = 1 (1 samples)
Hops average = 6.24859 (1 samples)
Total run time 55.7334
