BEGIN Configuration File: examples/ecc_mesh88_config_1_0.900_packet_5
// $Id$

// Copyright (c) 2007-2015, Trustees of The Leland Stanford Junior University
// All rights reserved.
//
// Redistribution and use in source and binary forms, with or without
// modification, are permitted provided that the following conditions are met:
//
// Redistributions of source code must retain the above copyright notice, this
// list of conditions and the following disclaimer.
// Redistributions in binary form must reproduce the above copyright notice,
// this list of conditions and the following disclaimer in the documentation
// and/or other materials provided with the distribution.
//
// THIS SOFTWARE IS PROVIDED BY THE COPYRIGHT HOLDERS AND CONTRIBUTORS "AS IS"
// AND ANY EXPRESS OR IMPLIED WARRANTIES, INCLUDING, BUT NOT LIMITED TO, THE
// IMPLIED WARRANTIES OF MERCHANTABILITY AND FITNESS FOR A PARTICULAR PURPOSE
// ARE DISCLAIMED. IN NO EVENT SHALL THE COPYRIGHT OWNER OR CONTRIBUTORS BE
// LIABLE FOR ANY DIRECT, INDIRECT, INCIDENTAL, SPECIAL, EXEMPLARY, OR
// CONSEQUENTIAL DAMAGES (INCLUDING, BUT NOT LIMITED TO, PROCUREMENT OF
// SUBSTITUTE GOODS OR SERVICES; LOSS OF USE, DATA, OR PROFITS; OR BUSINESS
// INTERRUPTION) HOWEVER CAUSED AND ON ANY THEORY OF LIABILITY, WHETHER IN
// CONTRACT, STRICT LIABILITY, OR TORT (INCLUDING NEGLIGENCE OR OTHERWISE)
// ARISING IN ANY WAY OUT OF THE USE OF THIS SOFTWARE, EVEN IF ADVISED OF THE
// POSSIBILITY OF SUCH DAMAGE.

// Dragonfly
//




vc_buf_size = 256;


wait_for_tail_credit = 0;

//
// Router architecture
//
vc_allocator = separable_input_first; 
sw_allocator = separable_input_first;
alloc_iters  = 1;

credit_delay   = 2;
routing_delay  = 0;
vc_alloc_delay = 1;
sw_alloc_delay = 1;
st_final_delay = 1;

input_speedup     = 1;
output_speedup    = 1;
internal_speedup  = 2.0;


warmup_periods = 3;
sim_count          = 1;

sample_period  = 10000;  


routing_function = dor;
num_vcs     = 2;

priority = none;
traffic       = uniform; 

injection_rate = 0.9;
packet_size = 1;
injection_rate_uses_flits = 1;

topology = mesh;

k  = 8;
n  = 2;

fer = 5;
ecc = link;

watch_out=-;
//watch_file = watch.txt;

ecc = packet;

stats_out = examples/ecc_mesh88_config_1_0.900_packet_5.m;

END Configuration File: examples/ecc_mesh88_config_1_0.900_packet_5
Additional hops: 6
Set signal latency stall time: 12
Reenqueueing errored packet 8646 at time 194
Additional hops: 17
Set signal latency stall time: 22
Reenqueueing errored packet 8561 at time 451
Additional hops: 21
Set signal latency stall time: 8
Reenqueueing errored packet 18778 at time 482
Additional hops: 28
Set signal latency stall time: 14
Reenqueueing errored packet 28422 at time 887
Additional hops: 32
Set signal latency stall time: 8
Reenqueueing errored packet 97017 at time 1826
Additional hops: 43
Set signal latency stall time: 22
Reenqueueing errored packet 36070 at time 2245
Additional hops: 51
Set signal latency stall time: 16
Additional hops: 55
Set signal latency stall time: 8
Reenqueueing errored packet 150118 at time 2927
Additional hops: 65
Set signal latency stall time: 20
Additional hops: 78
Set signal latency stall time: 26
Additional hops: 88
Set signal latency stall time: 20
Reenqueueing errored packet 78126 at time 4031
Additional hops: 97
Set signal latency stall time: 18
Reenqueueing errored packet 153059 at time 4105
Additional hops: 106
Set signal latency stall time: 18
Reenqueueing errored packet 181971 at time 4155
Additional hops: 112
Set signal latency stall time: 12
Reenqueueing errored packet 192512 at time 4332
Additional hops: 124
Set signal latency stall time: 24
Reenqueueing errored packet 90530 at time 4609
Additional hops: 133
Set signal latency stall time: 18
Additional hops: 143
Set signal latency stall time: 20
Reenqueueing errored packet 93272 at time 5101
Additional hops: 152
Set signal latency stall time: 18
Additional hops: 162
Set signal latency stall time: 20
Reenqueueing errored packet 206649 at time 5453
Additional hops: 171
Set signal latency stall time: 18
Additional hops: 178
Set signal latency stall time: 14
Additional hops: 182
Set signal latency stall time: 8
Reenqueueing errored packet 233383 at time 6235
Additional hops: 192
Set signal latency stall time: 20
Additional hops: 199
Set signal latency stall time: 14
Reenqueueing errored packet 217585 at time 7247
Additional hops: 205
Set signal latency stall time: 12
Reenqueueing errored packet 284791 at time 7699
Additional hops: 213
Set signal latency stall time: 16
Reenqueueing errored packet 301762 at time 8368
Additional hops: 222
Set signal latency stall time: 18
Class 0:
Packet latency average = 1734.2
	minimum = 5
	maximum = 7579
Network latency average = 1481.32
	minimum = 5
	maximum = 6957
Slowest packet = 119836
Flit latency average = 1481.32
	minimum = 5
	maximum = 6957
Slowest flit = 168086
Fragmentation average = 0
	minimum = 0
	maximum = 0
Injected packet rate average = 0.620756
	minimum = 0.4247 (at node 9)
	maximum = 0.8932 (at node 59)
Accepted packet rate average = 0.501311
	minimum = 0.4804 (at node 21)
	maximum = 0.5145 (at node 56)
Injected flit rate average = 0.620756
	minimum = 0.4247 (at node 9)
	maximum = 0.8932 (at node 59)
Accepted flit rate average= 0.501311
	minimum = 0.4804 (at node 21)
	maximum = 0.5145 (at node 56)
Injected packet length average = 1
Accepted packet length average = 1
Total in-flight flits = 76493 (0 measured)
latency change    = 1
throughput change = 1
Average latency for class 0 exceeded 500 cycles. Aborting simulation.
Too many sample periods needed to converge
Simulation unstable, ending ...
Total run time 56.4435
