BEGIN Configuration File: examples/ecc_mesh88_config_1_0.450_packet_5
// $Id$

// Copyright (c) 2007-2015, Trustees of The Leland Stanford Junior University
// All rights reserved.
//
// Redistribution and use in source and binary forms, with or without
// modification, are permitted provided that the following conditions are met:
//
// Redistributions of source code must retain the above copyright notice, this
// list of conditions and the following disclaimer.
// Redistributions in binary form must reproduce the above copyright notice,
// this list of conditions and the following disclaimer in the documentation
// and/or other materials provided with the distribution.
//
// THIS SOFTWARE IS PROVIDED BY THE COPYRIGHT HOLDERS AND CONTRIBUTORS "AS IS"
// AND ANY EXPRESS OR IMPLIED WARRANTIES, INCLUDING, BUT NOT LIMITED TO, THE
// IMPLIED WARRANTIES OF MERCHANTABILITY AND FITNESS FOR A PARTICULAR PURPOSE
// ARE DISCLAIMED. IN NO EVENT SHALL THE COPYRIGHT OWNER OR CONTRIBUTORS BE
// LIABLE FOR ANY DIRECT, INDIRECT, INCIDENTAL, SPECIAL, EXEMPLARY, OR
// CONSEQUENTIAL DAMAGES (INCLUDING, BUT NOT LIMITED TO, PROCUREMENT OF
// SUBSTITUTE GOODS OR SERVICES; LOSS OF USE, DATA, OR PROFITS; OR BUSINESS
// INTERRUPTION) HOWEVER CAUSED AND ON ANY THEORY OF LIABILITY, WHETHER IN
// CONTRACT, STRICT LIABILITY, OR TORT (INCLUDING NEGLIGENCE OR OTHERWISE)
// ARISING IN ANY WAY OUT OF THE USE OF THIS SOFTWARE, EVEN IF ADVISED OF THE
// POSSIBILITY OF SUCH DAMAGE.

// Dragonfly
//




vc_buf_size = 256;


wait_for_tail_credit = 0;

//
// Router architecture
//
vc_allocator = separable_input_first; 
sw_allocator = separable_input_first;
alloc_iters  = 1;

credit_delay   = 2;
routing_delay  = 0;
vc_alloc_delay = 1;
sw_alloc_delay = 1;
st_final_delay = 1;

input_speedup     = 1;
output_speedup    = 1;
internal_speedup  = 2.0;


warmup_periods = 3;
sim_count          = 1;

sample_period  = 10000;  


routing_function = dor;
num_vcs     = 2;

priority = none;
traffic       = uniform; 

injection_rate = 0.45;
packet_size = 1;
injection_rate_uses_flits = 1;

topology = mesh;

k  = 8;
n  = 2;

fer = 5;
ecc = link;

watch_out=-;
//watch_file = watch.txt;

ecc = packet;

stats_out = examples/ecc_mesh88_config_1_0.450_packet_5.m;

END Configuration File: examples/ecc_mesh88_config_1_0.450_packet_5
Additional hops: 2
Set signal latency stall time: 4
Reenqueueing errored packet 5480 at time 206
Additional hops: 7
Set signal latency stall time: 10
Reenqueueing errored packet 6001 at time 241
Additional hops: 19
Set signal latency stall time: 24
Reenqueueing errored packet 14599 at time 585
Additional hops: 29
Set signal latency stall time: 20
Reenqueueing errored packet 31501 at time 1147
Additional hops: 36
Set signal latency stall time: 14
Reenqueueing errored packet 48646 at time 1733
Additional hops: 46
Set signal latency stall time: 20
Reenqueueing errored packet 65901 at time 2350
Additional hops: 52
Set signal latency stall time: 12
Reenqueueing errored packet 83317 at time 2934
Additional hops: 58
Set signal latency stall time: 12
Reenqueueing errored packet 102843 at time 3601
Additional hops: 67
Set signal latency stall time: 18
Reenqueueing errored packet 125107 at time 4399
Additional hops: 76
Set signal latency stall time: 18
Reenqueueing errored packet 125602 at time 4420
Additional hops: 86
Set signal latency stall time: 20
Reenqueueing errored packet 132375 at time 4668
Additional hops: 93
Set signal latency stall time: 14
Reenqueueing errored packet 136106 at time 4764
Additional hops: 99
Set signal latency stall time: 12
Additional hops: 109
Set signal latency stall time: 20
Reenqueueing errored packet 142089 at time 4970
Reenqueueing errored packet 141777 at time 4981
Additional hops: 121
Set signal latency stall time: 24
Reenqueueing errored packet 144035 at time 5113
Additional hops: 129
Set signal latency stall time: 16
Reenqueueing errored packet 149004 at time 5225
Additional hops: 135
Set signal latency stall time: 12
Additional hops: 142
Set signal latency stall time: 14
Reenqueueing errored packet 171850 at time 6012
Reenqueueing errored packet 171905 at time 6023
Additional hops: 145
Set signal latency stall time: 6
Reenqueueing errored packet 173663 at time 6057
Additional hops: 153
Set signal latency stall time: 16
Reenqueueing errored packet 173899 at time 6091
Additional hops: 158
Set signal latency stall time: 10
Reenqueueing errored packet 207635 at time 7244
Additional hops: 165
Set signal latency stall time: 14
Reenqueueing errored packet 226144 at time 7914
Additional hops: 171
Set signal latency stall time: 12
Reenqueueing errored packet 250700 at time 8743
Additional hops: 177
Set signal latency stall time: 12
Reenqueueing errored packet 251699 at time 8778
Additional hops: 187
Set signal latency stall time: 20
Reenqueueing errored packet 258933 at time 9051
Additional hops: 192
Set signal latency stall time: 10
Reenqueueing errored packet 279404 at time 9744
Additional hops: 201
Set signal latency stall time: 18
Reenqueueing errored packet 281570 at time 9831
Class 0:
Packet latency average = 27.1552
	minimum = 5
	maximum = 172
Network latency average = 27.1505
	minimum = 5
	maximum = 103
Slowest packet = 8040
Flit latency average = 27.1505
	minimum = 5
	maximum = 103
Slowest flit = 55654
Fragmentation average = 0
	minimum = 0
	maximum = 0
Injected packet rate average = 0.449742
	minimum = 0.4397 (at node 32)
	maximum = 0.4592 (at node 17)
Accepted packet rate average = 0.448509
	minimum = 0.4352 (at node 21)
	maximum = 0.4622 (at node 28)
Injected flit rate average = 0.449742
	minimum = 0.4397 (at node 32)
	maximum = 0.4592 (at node 17)
Accepted flit rate average= 0.448509
	minimum = 0.4352 (at node 21)
	maximum = 0.4622 (at node 28)
Injected packet length average = 1
Accepted packet length average = 1
Total in-flight flits = 789 (0 measured)
latency change    = 1
throughput change = 1
Additional hops: 212
Set signal latency stall time: 22
Reenqueueing errored packet 286778 at time 10027
Additional hops: 215
Set signal latency stall time: 6
Reenqueueing errored packet 304078 at time 10591
Additional hops: 223
Set signal latency stall time: 16
Reenqueueing errored packet 348039 at time 12143
Additional hops: 232
Set signal latency stall time: 18
Reenqueueing errored packet 383129 at time 13371
Additional hops: 240
Set signal latency stall time: 16
Additional hops: 244
Set signal latency stall time: 8
Reenqueueing errored packet 385012 at time 13397
Reenqueueing errored packet 384384 at time 13398
Additional hops: 249
Set signal latency stall time: 10
Reenqueueing errored packet 385191 at time 13416
Additional hops: 257
Set signal latency stall time: 16
Reenqueueing errored packet 387346 at time 13501
Additional hops: 263
Set signal latency stall time: 12
Reenqueueing errored packet 394111 at time 13724
Additional hops: 268
Set signal latency stall time: 10
Reenqueueing errored packet 396398 at time 13797
Additional hops: 275
Set signal latency stall time: 14
Additional hops: 288
Set signal latency stall time: 26
Reenqueueing errored packet 399407 at time 13916
Reenqueueing errored packet 398733 at time 13936
Additional hops: 296
Set signal latency stall time: 16
Reenqueueing errored packet 452141 at time 15757
Additional hops: 297
Set signal latency stall time: 2
Reenqueueing errored packet 461794 at time 16039
Additional hops: 301
Set signal latency stall time: 8
Reenqueueing errored packet 485525 at time 16886
Additional hops: 310
Set signal latency stall time: 18
Reenqueueing errored packet 493332 at time 17191
Additional hops: 320
Set signal latency stall time: 20
Reenqueueing errored packet 500680 at time 17447
Additional hops: 328
Set signal latency stall time: 16
Reenqueueing errored packet 542937 at time 18912
Class 0:
Packet latency average = 27.1481
	minimum = 5
	maximum = 172
Network latency average = 27.1443
	minimum = 5
	maximum = 103
Slowest packet = 8040
Flit latency average = 27.1443
	minimum = 5
	maximum = 103
Slowest flit = 55654
Fragmentation average = 0
	minimum = 0
	maximum = 0
Injected packet rate average = 0.449794
	minimum = 0.4426 (at node 0)
	maximum = 0.4578 (at node 14)
Accepted packet rate average = 0.449173
	minimum = 0.4404 (at node 25)
	maximum = 0.45965 (at node 39)
Injected flit rate average = 0.449794
	minimum = 0.4426 (at node 0)
	maximum = 0.4578 (at node 14)
Accepted flit rate average= 0.449173
	minimum = 0.4404 (at node 25)
	maximum = 0.45965 (at node 39)
Injected packet length average = 1
Accepted packet length average = 1
Total in-flight flits = 794 (0 measured)
latency change    = 0.000262141
throughput change = 0.00147841
Additional hops: 333
Set signal latency stall time: 10
Reenqueueing errored packet 588584 at time 20481
Additional hops: 340
Set signal latency stall time: 14
Reenqueueing errored packet 588627 at time 20503
Additional hops: 350
Set signal latency stall time: 20
Reenqueueing errored packet 600290 at time 20915
Additional hops: 358
Set signal latency stall time: 16
Reenqueueing errored packet 613806 at time 21383
Additional hops: 365
Set signal latency stall time: 14
Reenqueueing errored packet 642731 at time 22381
Additional hops: 370
Set signal latency stall time: 10
Reenqueueing errored packet 674449 at time 23464
Additional hops: 375
Set signal latency stall time: 10
Reenqueueing errored packet 678216 at time 23589
Additional hops: 381
Set signal latency stall time: 12
Reenqueueing errored packet 695003 at time 24178
Additional hops: 391
Set signal latency stall time: 20
Reenqueueing errored packet 701005 at time 24440
Additional hops: 397
Set signal latency stall time: 12
Reenqueueing errored packet 709577 at time 24685
Additional hops: 401
Set signal latency stall time: 8
Reenqueueing errored packet 712799 at time 24780
Additional hops: 410
Set signal latency stall time: 18
Reenqueueing errored packet 715310 at time 24899
Additional hops: 415
Set signal latency stall time: 10
Reenqueueing errored packet 730326 at time 25405
Additional hops: 422
Set signal latency stall time: 14
Reenqueueing errored packet 732401 at time 25476
Additional hops: 427
Set signal latency stall time: 10
Reenqueueing errored packet 758209 at time 26368
Additional hops: 434
Set signal latency stall time: 14
Reenqueueing errored packet 772894 at time 26894
Additional hops: 438
Set signal latency stall time: 8
Reenqueueing errored packet 800399 at time 27822
Additional hops: 443
Set signal latency stall time: 10
Reenqueueing errored packet 816652 at time 28398
Additional hops: 451
Set signal latency stall time: 16
Reenqueueing errored packet 822215 at time 28615
Additional hops: 454
Set signal latency stall time: 6
Reenqueueing errored packet 825514 at time 28694
Additional hops: 462
Set signal latency stall time: 16
Reenqueueing errored packet 826135 at time 28755
Additional hops: 470
Set signal latency stall time: 16
Reenqueueing errored packet 827694 at time 28802
Additional hops: 478
Set signal latency stall time: 16
Reenqueueing errored packet 842784 at time 29321
Additional hops: 482
Set signal latency stall time: 8
Reenqueueing errored packet 846410 at time 29428
Class 0:
Packet latency average = 27.0642
	minimum = 5
	maximum = 176
Network latency average = 27.0606
	minimum = 5
	maximum = 100
Slowest packet = 673647
Flit latency average = 27.0606
	minimum = 5
	maximum = 100
Slowest flit = 673647
Fragmentation average = 0
	minimum = 0
	maximum = 0
Injected packet rate average = 0.449789
	minimum = 0.4371 (at node 47)
	maximum = 0.462 (at node 6)
Accepted packet rate average = 0.449811
	minimum = 0.4292 (at node 62)
	maximum = 0.4602 (at node 37)
Injected flit rate average = 0.449789
	minimum = 0.4371 (at node 47)
	maximum = 0.462 (at node 6)
Accepted flit rate average= 0.449811
	minimum = 0.4292 (at node 62)
	maximum = 0.4602 (at node 37)
Injected packet length average = 1
Accepted packet length average = 1
Total in-flight flits = 780 (0 measured)
latency change    = 0.00309954
throughput change = 0.00141726
Warmed up ...Time used is 30000 cycles
Additional hops: 485
Set signal latency stall time: 6
Reenqueueing errored packet 867414 at time 30151
Additional hops: 497
Set signal latency stall time: 24
Reenqueueing errored packet 874428 at time 30447
Additional hops: 503
Set signal latency stall time: 12
Reenqueueing errored packet 887610 at time 30880
Additional hops: 512
Set signal latency stall time: 18
Reenqueueing errored packet 895752 at time 31178
Additional hops: 515
Set signal latency stall time: 6
Reenqueueing errored packet 923611 at time 32107
Additional hops: 527
Set signal latency stall time: 24
Reenqueueing errored packet 935326 at time 32566
Additional hops: 535
Set signal latency stall time: 16
Additional hops: 542
Set signal latency stall time: 14
Reenqueueing errored packet 947844 at time 32965
Reenqueueing errored packet 947599 at time 32967
Additional hops: 550
Set signal latency stall time: 16
Reenqueueing errored packet 955537 at time 33239
Additional hops: 557
Set signal latency stall time: 14
Reenqueueing errored packet 960476 at time 33409
Additional hops: 564
Set signal latency stall time: 14
Reenqueueing errored packet 994135 at time 34566
Additional hops: 575
Set signal latency stall time: 22
Reenqueueing errored packet 995475 at time 34637
Additional hops: 587
Set signal latency stall time: 24
Reenqueueing errored packet 1031818 at time 35906
Additional hops: 593
Set signal latency stall time: 12
Additional hops: 602
Set signal latency stall time: 18
Reenqueueing errored packet 1054583 at time 36668
Reenqueueing errored packet 1054532 at time 36677
Additional hops: 605
Set signal latency stall time: 6
Reenqueueing errored packet 1121952 at time 38982
Class 0:
Packet latency average = 27.1693
	minimum = 5
	maximum = 120
Network latency average = 27.1665
	minimum = 5
	maximum = 106
Slowest packet = 867270
Flit latency average = 27.18
	minimum = 5
	maximum = 106
Slowest flit = 1083423
Fragmentation average = 0
	minimum = 0
	maximum = 0
Injected packet rate average = 0.4504
	minimum = 0.4408 (at node 34)
	maximum = 0.4606 (at node 38)
Accepted packet rate average = 0.450356
	minimum = 0.4344 (at node 14)
	maximum = 0.4696 (at node 63)
Injected flit rate average = 0.4504
	minimum = 0.4408 (at node 34)
	maximum = 0.4606 (at node 38)
Accepted flit rate average= 0.450356
	minimum = 0.4344 (at node 14)
	maximum = 0.4696 (at node 63)
Injected packet length average = 1
Accepted packet length average = 1
Total in-flight flits = 808 (808 measured)
latency change    = 0.00386694
throughput change = 0.00121085
Additional hops: 617
Set signal latency stall time: 24
Reenqueueing errored packet 1153086 at time 40119
Additional hops: 620
Set signal latency stall time: 6
Reenqueueing errored packet 1163916 at time 40439
Additional hops: 632
Set signal latency stall time: 24
Reenqueueing errored packet 1171139 at time 40745
Additional hops: 639
Set signal latency stall time: 14
Reenqueueing errored packet 1174615 at time 40842
Additional hops: 649
Set signal latency stall time: 20
Reenqueueing errored packet 1180892 at time 41070
Additional hops: 657
Set signal latency stall time: 16
Reenqueueing errored packet 1219987 at time 42416
Additional hops: 665
Set signal latency stall time: 16
Reenqueueing errored packet 1233197 at time 42871
Additional hops: 670
Set signal latency stall time: 10
Reenqueueing errored packet 1237797 at time 43017
Additional hops: 682
Set signal latency stall time: 24
Reenqueueing errored packet 1237302 at time 43055
Additional hops: 686
Set signal latency stall time: 8
Reenqueueing errored packet 1245917 at time 43290
Additional hops: 695
Set signal latency stall time: 18
Reenqueueing errored packet 1256584 at time 43689
Additional hops: 701
Set signal latency stall time: 12
Reenqueueing errored packet 1269236 at time 44113
Additional hops: 703
Set signal latency stall time: 4
Reenqueueing errored packet 1271483 at time 44160
Additional hops: 713
Set signal latency stall time: 20
Reenqueueing errored packet 1274588 at time 44324
Additional hops: 721
Set signal latency stall time: 16
Reenqueueing errored packet 1277438 at time 44408
Additional hops: 731
Set signal latency stall time: 20
Reenqueueing errored packet 1288445 at time 44806
Additional hops: 740
Set signal latency stall time: 18
Reenqueueing errored packet 1304231 at time 45328
Additional hops: 748
Set signal latency stall time: 16
Reenqueueing errored packet 1330569 at time 46242
Additional hops: 750
Set signal latency stall time: 4
Reenqueueing errored packet 1407001 at time 48863
Additional hops: 761
Set signal latency stall time: 22
Reenqueueing errored packet 1409307 at time 49012
Additional hops: 767
Set signal latency stall time: 12
Reenqueueing errored packet 1420486 at time 49355
Additional hops: 771
Set signal latency stall time: 8
Additional hops: 781
Set signal latency stall time: 20
Reenqueueing errored packet 1436343 at time 49888
Reenqueueing errored packet 1435364 at time 49908
Class 0:
Packet latency average = 27.1903
	minimum = 5
	maximum = 139
Network latency average = 27.1868
	minimum = 5
	maximum = 106
Slowest packet = 867270
Flit latency average = 27.1935
	minimum = 5
	maximum = 106
Slowest flit = 1083423
Fragmentation average = 0
	minimum = 0
	maximum = 0
Injected packet rate average = 0.450728
	minimum = 0.4446 (at node 30)
	maximum = 0.46135 (at node 38)
Accepted packet rate average = 0.450753
	minimum = 0.4394 (at node 18)
	maximum = 0.46195 (at node 0)
Injected flit rate average = 0.450728
	minimum = 0.4446 (at node 30)
	maximum = 0.46135 (at node 38)
Accepted flit rate average= 0.450753
	minimum = 0.4394 (at node 18)
	maximum = 0.46195 (at node 0)
Injected packet length average = 1
Accepted packet length average = 1
Total in-flight flits = 748 (748 measured)
latency change    = 0.000773107
throughput change = 0.000880471
Additional hops: 786
Set signal latency stall time: 10
Reenqueueing errored packet 1449289 at time 50340
Additional hops: 795
Set signal latency stall time: 18
Reenqueueing errored packet 1462875 at time 50834
Additional hops: 805
Set signal latency stall time: 20
Reenqueueing errored packet 1473521 at time 51215
Additional hops: 810
Set signal latency stall time: 10
Reenqueueing errored packet 1503281 at time 52216
Additional hops: 817
Set signal latency stall time: 14
Reenqueueing errored packet 1510370 at time 52469
Additional hops: 822
Set signal latency stall time: 10
Reenqueueing errored packet 1524418 at time 52941
Additional hops: 828
Set signal latency stall time: 12
Reenqueueing errored packet 1552943 at time 53943
Additional hops: 833
Set signal latency stall time: 10
Reenqueueing errored packet 1558871 at time 54150
Additional hops: 846
Set signal latency stall time: 26
Reenqueueing errored packet 1565353 at time 54426
Additional hops: 858
Set signal latency stall time: 24
Reenqueueing errored packet 1578160 at time 54860
Additional hops: 869
Set signal latency stall time: 22
Reenqueueing errored packet 1583626 at time 55052
Additional hops: 880
Set signal latency stall time: 22
Reenqueueing errored packet 1601693 at time 55681
Additional hops: 885
Set signal latency stall time: 10
Reenqueueing errored packet 1605211 at time 55768
Additional hops: 891
Set signal latency stall time: 12
Reenqueueing errored packet 1608576 at time 55886
Additional hops: 896
Set signal latency stall time: 10
Reenqueueing errored packet 1618365 at time 56225
Additional hops: 904
Set signal latency stall time: 16
Reenqueueing errored packet 1632547 at time 56737
Additional hops: 910
Set signal latency stall time: 12
Reenqueueing errored packet 1635162 at time 56810
Additional hops: 918
Set signal latency stall time: 16
Reenqueueing errored packet 1635933 at time 56847
Additional hops: 925
Set signal latency stall time: 14
Reenqueueing errored packet 1681100 at time 58407
Additional hops: 927
Set signal latency stall time: 4
Reenqueueing errored packet 1690498 at time 58706
Additional hops: 934
Set signal latency stall time: 14
Reenqueueing errored packet 1693681 at time 58844
Additional hops: 939
Set signal latency stall time: 10
Reenqueueing errored packet 1700509 at time 59078
Additional hops: 948
Set signal latency stall time: 18
Reenqueueing errored packet 1719812 at time 59776
Additional hops: 957
Set signal latency stall time: 18
Additional hops: 964
Set signal latency stall time: 14
Reenqueueing errored packet 1725019 at time 59970
Reenqueueing errored packet 1725577 at time 59977
Class 0:
Packet latency average = 27.1203
	minimum = 5
	maximum = 139
Network latency average = 27.1168
	minimum = 5
	maximum = 106
Slowest packet = 867270
Flit latency average = 27.1213
	minimum = 5
	maximum = 106
Slowest flit = 1083423
Fragmentation average = 0
	minimum = 0
	maximum = 0
Injected packet rate average = 0.450241
	minimum = 0.445333 (at node 57)
	maximum = 0.4597 (at node 38)
Accepted packet rate average = 0.450235
	minimum = 0.440467 (at node 40)
	maximum = 0.457433 (at node 38)
Injected flit rate average = 0.450241
	minimum = 0.445333 (at node 57)
	maximum = 0.4597 (at node 38)
Accepted flit rate average= 0.450235
	minimum = 0.440467 (at node 40)
	maximum = 0.457433 (at node 38)
Injected packet length average = 1
Accepted packet length average = 1
Total in-flight flits = 791 (791 measured)
latency change    = 0.00257983
throughput change = 0.00114986
Draining all recorded packets ...
Draining remaining packets ...
Time taken is 60107 cycles
====== Overall Traffic Statistics ======
====== Traffic class 0 ======
Packet latency average = 27.1252 (1 samples)
	minimum = 5 (1 samples)
	maximum = 139 (1 samples)
Network latency average = 27.1215 (1 samples)
	minimum = 5 (1 samples)
	maximum = 106 (1 samples)
Flit latency average = 27.1245 (1 samples)
	minimum = 5 (1 samples)
	maximum = 106 (1 samples)
Fragmentation average = 0 (1 samples)
	minimum = 0 (1 samples)
	maximum = 0 (1 samples)
Injected packet rate average = 0.450241 (1 samples)
	minimum = 0.445333 (1 samples)
	maximum = 0.4597 (1 samples)
Accepted packet rate average = 0.450235 (1 samples)
	minimum = 0.440467 (1 samples)
	maximum = 0.457433 (1 samples)
Injected flit rate average = 0.450241 (1 samples)
	minimum = 0.445333 (1 samples)
	maximum = 0.4597 (1 samples)
Accepted flit rate average = 0.450235 (1 samples)
	minimum = 0.440467 (1 samples)
	maximum = 0.457433 (1 samples)
Injected packet size average = 1 (1 samples)
Accepted packet size average = 1 (1 samples)
Hops average = 6.24442 (1 samples)
Total run time 111.636
