BEGIN Configuration File: examples/ecc_mesh88_config_1_0.500_packet_5
// $Id$

// Copyright (c) 2007-2015, Trustees of The Leland Stanford Junior University
// All rights reserved.
//
// Redistribution and use in source and binary forms, with or without
// modification, are permitted provided that the following conditions are met:
//
// Redistributions of source code must retain the above copyright notice, this
// list of conditions and the following disclaimer.
// Redistributions in binary form must reproduce the above copyright notice,
// this list of conditions and the following disclaimer in the documentation
// and/or other materials provided with the distribution.
//
// THIS SOFTWARE IS PROVIDED BY THE COPYRIGHT HOLDERS AND CONTRIBUTORS "AS IS"
// AND ANY EXPRESS OR IMPLIED WARRANTIES, INCLUDING, BUT NOT LIMITED TO, THE
// IMPLIED WARRANTIES OF MERCHANTABILITY AND FITNESS FOR A PARTICULAR PURPOSE
// ARE DISCLAIMED. IN NO EVENT SHALL THE COPYRIGHT OWNER OR CONTRIBUTORS BE
// LIABLE FOR ANY DIRECT, INDIRECT, INCIDENTAL, SPECIAL, EXEMPLARY, OR
// CONSEQUENTIAL DAMAGES (INCLUDING, BUT NOT LIMITED TO, PROCUREMENT OF
// SUBSTITUTE GOODS OR SERVICES; LOSS OF USE, DATA, OR PROFITS; OR BUSINESS
// INTERRUPTION) HOWEVER CAUSED AND ON ANY THEORY OF LIABILITY, WHETHER IN
// CONTRACT, STRICT LIABILITY, OR TORT (INCLUDING NEGLIGENCE OR OTHERWISE)
// ARISING IN ANY WAY OUT OF THE USE OF THIS SOFTWARE, EVEN IF ADVISED OF THE
// POSSIBILITY OF SUCH DAMAGE.

// Dragonfly
//




vc_buf_size = 256;


wait_for_tail_credit = 0;

//
// Router architecture
//
vc_allocator = separable_input_first; 
sw_allocator = separable_input_first;
alloc_iters  = 1;

credit_delay   = 2;
routing_delay  = 0;
vc_alloc_delay = 1;
sw_alloc_delay = 1;
st_final_delay = 1;

input_speedup     = 1;
output_speedup    = 1;
internal_speedup  = 2.0;


warmup_periods = 3;
sim_count          = 1;

sample_period  = 10000;  


routing_function = dor;
num_vcs     = 2;

priority = none;
traffic       = uniform; 

injection_rate = 0.5;
packet_size = 1;
injection_rate_uses_flits = 1;

topology = mesh;

k  = 8;
n  = 2;

fer = 5;
ecc = link;

watch_out=-;
//watch_file = watch.txt;

ecc = packet;

stats_out = examples/ecc_mesh88_config_1_0.500_packet_5.m;

END Configuration File: examples/ecc_mesh88_config_1_0.500_packet_5
Additional hops: 5
Set signal latency stall time: 10
Additional hops: 12
Set signal latency stall time: 14
Reenqueueing errored packet 5811 at time 226
Reenqueueing errored packet 6021 at time 231
Additional hops: 20
Set signal latency stall time: 16
Reenqueueing errored packet 15969 at time 549
Additional hops: 27
Set signal latency stall time: 14
Reenqueueing errored packet 32671 at time 1085
Additional hops: 38
Set signal latency stall time: 22
Reenqueueing errored packet 32605 at time 1111
Additional hops: 43
Set signal latency stall time: 10
Reenqueueing errored packet 50279 at time 1602
Additional hops: 50
Set signal latency stall time: 14
Reenqueueing errored packet 68060 at time 2167
Additional hops: 54
Set signal latency stall time: 8
Reenqueueing errored packet 85716 at time 2700
Additional hops: 63
Set signal latency stall time: 18
Reenqueueing errored packet 116408 at time 3695
Additional hops: 71
Set signal latency stall time: 16
Reenqueueing errored packet 128567 at time 4094
Additional hops: 83
Set signal latency stall time: 24
Reenqueueing errored packet 138925 at time 4460
Additional hops: 86
Set signal latency stall time: 6
Additional hops: 94
Set signal latency stall time: 16
Reenqueueing errored packet 146382 at time 4593
Reenqueueing errored packet 144994 at time 4609
Additional hops: 99
Set signal latency stall time: 10
Reenqueueing errored packet 147906 at time 4725
Additional hops: 102
Set signal latency stall time: 6
Reenqueueing errored packet 177063 at time 5557
Additional hops: 106
Set signal latency stall time: 8
Reenqueueing errored packet 176999 at time 5571
Additional hops: 115
Set signal latency stall time: 18
Additional hops: 121
Set signal latency stall time: 12
Reenqueueing errored packet 177101 at time 5633
Reenqueueing errored packet 179461 at time 5643
Additional hops: 130
Set signal latency stall time: 18
Reenqueueing errored packet 197484 at time 6336
Additional hops: 134
Set signal latency stall time: 8
Reenqueueing errored packet 210003 at time 6641
Additional hops: 145
Set signal latency stall time: 22
Reenqueueing errored packet 232068 at time 7432
Additional hops: 158
Set signal latency stall time: 26
Reenqueueing errored packet 251301 at time 8109
Additional hops: 168
Set signal latency stall time: 20
Reenqueueing errored packet 287716 at time 9087
Additional hops: 176
Set signal latency stall time: 16
Reenqueueing errored packet 289401 at time 9187
Additional hops: 180
Set signal latency stall time: 8
Reenqueueing errored packet 295339 at time 9294
Additional hops: 188
Set signal latency stall time: 16
Reenqueueing errored packet 308029 at time 9805
Class 0:
Packet latency average = 68.4796
	minimum = 5
	maximum = 464
Network latency average = 68.4725
	minimum = 5
	maximum = 451
Slowest packet = 249670
Flit latency average = 68.4725
	minimum = 5
	maximum = 451
Slowest flit = 303568
Fragmentation average = 0
	minimum = 0
	maximum = 0
Injected packet rate average = 0.499717
	minimum = 0.4881 (at node 44)
	maximum = 0.5141 (at node 27)
Accepted packet rate average = 0.495461
	minimum = 0.4808 (at node 21)
	maximum = 0.509 (at node 14)
Injected flit rate average = 0.499717
	minimum = 0.4881 (at node 44)
	maximum = 0.5141 (at node 27)
Accepted flit rate average= 0.495461
	minimum = 0.4808 (at node 21)
	maximum = 0.509 (at node 14)
Injected packet length average = 1
Accepted packet length average = 1
Total in-flight flits = 2724 (0 measured)
latency change    = 1
throughput change = 1
Additional hops: 194
Set signal latency stall time: 12
Reenqueueing errored packet 332479 at time 10450
Additional hops: 203
Set signal latency stall time: 18
Reenqueueing errored packet 349694 at time 11243
Additional hops: 211
Set signal latency stall time: 16
Reenqueueing errored packet 367901 at time 11616
Additional hops: 219
Set signal latency stall time: 16
Additional hops: 226
Set signal latency stall time: 14
Reenqueueing errored packet 391959 at time 12364
Reenqueueing errored packet 393562 at time 12375
Additional hops: 236
Set signal latency stall time: 20
Reenqueueing errored packet 392284 at time 12433
Additional hops: 238
Set signal latency stall time: 4
Reenqueueing errored packet 397779 at time 12465
Additional hops: 246
Set signal latency stall time: 16
Reenqueueing errored packet 398774 at time 12687
Additional hops: 247
Set signal latency stall time: 2
Reenqueueing errored packet 406860 at time 12740
Additional hops: 252
Set signal latency stall time: 10
Additional hops: 258
Set signal latency stall time: 12
Reenqueueing errored packet 410005 at time 12872
Reenqueueing errored packet 407344 at time 12879
Additional hops: 262
Set signal latency stall time: 8
Reenqueueing errored packet 462341 at time 14500
Additional hops: 270
Set signal latency stall time: 16
Reenqueueing errored packet 463196 at time 14567
Additional hops: 275
Set signal latency stall time: 10
Reenqueueing errored packet 467976 at time 14675
Additional hops: 281
Set signal latency stall time: 12
Reenqueueing errored packet 491448 at time 15628
Additional hops: 285
Set signal latency stall time: 8
Reenqueueing errored packet 506153 at time 15867
Additional hops: 290
Set signal latency stall time: 10
Reenqueueing errored packet 600710 at time 18912
Additional hops: 299
Set signal latency stall time: 18
Reenqueueing errored packet 604409 at time 19036
Additional hops: 307
Set signal latency stall time: 16
Reenqueueing errored packet 615694 at time 19319
Additional hops: 313
Set signal latency stall time: 12
Reenqueueing errored packet 622850 at time 19740
Class 0:
Packet latency average = 80.489
	minimum = 5
	maximum = 562
Network latency average = 80.4821
	minimum = 5
	maximum = 484
Slowest packet = 311012
Flit latency average = 80.4821
	minimum = 5
	maximum = 484
Slowest flit = 620797
Fragmentation average = 0
	minimum = 0
	maximum = 0
Injected packet rate average = 0.499773
	minimum = 0.4922 (at node 21)
	maximum = 0.50725 (at node 42)
Accepted packet rate average = 0.496902
	minimum = 0.4877 (at node 21)
	maximum = 0.5087 (at node 39)
Injected flit rate average = 0.499773
	minimum = 0.4922 (at node 21)
	maximum = 0.50725 (at node 42)
Accepted flit rate average= 0.496902
	minimum = 0.4877 (at node 21)
	maximum = 0.5087 (at node 39)
Injected packet length average = 1
Accepted packet length average = 1
Total in-flight flits = 3674 (0 measured)
latency change    = 0.149206
throughput change = 0.00290078
Additional hops: 324
Set signal latency stall time: 22
Reenqueueing errored packet 656609 at time 20665
Additional hops: 329
Set signal latency stall time: 10
Reenqueueing errored packet 660526 at time 20863
Additional hops: 336
Set signal latency stall time: 14
Reenqueueing errored packet 687083 at time 21671
Additional hops: 343
Set signal latency stall time: 14
Reenqueueing errored packet 716412 at time 22544
Additional hops: 349
Set signal latency stall time: 12
Reenqueueing errored packet 713650 at time 22581
Additional hops: 354
Set signal latency stall time: 10
Reenqueueing errored packet 724709 at time 22682
Additional hops: 363
Set signal latency stall time: 18
Reenqueueing errored packet 727711 at time 22872
Additional hops: 368
Set signal latency stall time: 10
Reenqueueing errored packet 726446 at time 22895
Additional hops: 372
Set signal latency stall time: 8
Reenqueueing errored packet 750478 at time 23480
Additional hops: 381
Set signal latency stall time: 18
Reenqueueing errored packet 745590 at time 23649
Additional hops: 390
Set signal latency stall time: 18
Reenqueueing errored packet 765032 at time 24031
Additional hops: 395
Set signal latency stall time: 10
Reenqueueing errored packet 770859 at time 24130
Additional hops: 404
Set signal latency stall time: 18
Reenqueueing errored packet 776571 at time 24382
Additional hops: 406
Set signal latency stall time: 4
Reenqueueing errored packet 821374 at time 25685
Additional hops: 412
Set signal latency stall time: 12
Reenqueueing errored packet 836696 at time 26226
Additional hops: 419
Set signal latency stall time: 14
Reenqueueing errored packet 850004 at time 26707
Additional hops: 427
Set signal latency stall time: 16
Reenqueueing errored packet 860751 at time 27059
Additional hops: 437
Set signal latency stall time: 20
Reenqueueing errored packet 866230 at time 27214
Additional hops: 444
Set signal latency stall time: 14
Reenqueueing errored packet 889933 at time 27871
Additional hops: 454
Set signal latency stall time: 20
Reenqueueing errored packet 888682 at time 28095
Additional hops: 468
Set signal latency stall time: 28
Reenqueueing errored packet 908262 at time 28762
Additional hops: 478
Set signal latency stall time: 20
Reenqueueing errored packet 917397 at time 28827
Additional hops: 484
Set signal latency stall time: 12
Reenqueueing errored packet 922403 at time 29060
Class 0:
Packet latency average = 126.479
	minimum = 5
	maximum = 700
Network latency average = 126.468
	minimum = 5
	maximum = 679
Slowest packet = 866262
Flit latency average = 126.468
	minimum = 5
	maximum = 679
Slowest flit = 866262
Fragmentation average = 0
	minimum = 0
	maximum = 0
Injected packet rate average = 0.500406
	minimum = 0.4897 (at node 6)
	maximum = 0.5126 (at node 50)
Accepted packet rate average = 0.499555
	minimum = 0.4826 (at node 62)
	maximum = 0.514 (at node 28)
Injected flit rate average = 0.500406
	minimum = 0.4897 (at node 6)
	maximum = 0.5126 (at node 50)
Accepted flit rate average= 0.499555
	minimum = 0.4826 (at node 62)
	maximum = 0.514 (at node 28)
Injected packet length average = 1
Accepted packet length average = 1
Total in-flight flits = 4219 (0 measured)
latency change    = 0.36362
throughput change = 0.00530942
Warmed up ...Time used is 30000 cycles
Additional hops: 491
Set signal latency stall time: 14
Reenqueueing errored packet 955111 at time 30106
Additional hops: 494
Set signal latency stall time: 6
Reenqueueing errored packet 972624 at time 30422
Additional hops: 502
Set signal latency stall time: 16
Reenqueueing errored packet 963373 at time 30441
Additional hops: 510
Set signal latency stall time: 16
Reenqueueing errored packet 979853 at time 30696
Additional hops: 517
Set signal latency stall time: 14
Reenqueueing errored packet 983269 at time 30815
Additional hops: 530
Set signal latency stall time: 26
Reenqueueing errored packet 998541 at time 31363
Additional hops: 534
Set signal latency stall time: 8
Reenqueueing errored packet 1018251 at time 31894
Additional hops: 545
Set signal latency stall time: 22
Reenqueueing errored packet 1013542 at time 32167
Additional hops: 553
Set signal latency stall time: 16
Additional hops: 567
Set signal latency stall time: 28
Reenqueueing errored packet 1081431 at time 33850
Reenqueueing errored packet 1076655 at time 33864
Additional hops: 574
Set signal latency stall time: 14
Reenqueueing errored packet 1124059 at time 35405
Additional hops: 580
Set signal latency stall time: 12
Reenqueueing errored packet 1127823 at time 35482
Additional hops: 587
Set signal latency stall time: 14
Reenqueueing errored packet 1143151 at time 35864
Additional hops: 598
Set signal latency stall time: 22
Reenqueueing errored packet 1183159 at time 37344
Additional hops: 601
Set signal latency stall time: 6
Reenqueueing errored packet 1194089 at time 37545
Additional hops: 613
Set signal latency stall time: 24
Reenqueueing errored packet 1196137 at time 37693
Additional hops: 620
Set signal latency stall time: 14
Reenqueueing errored packet 1205188 at time 37755
Additional hops: 631
Set signal latency stall time: 22
Reenqueueing errored packet 1203993 at time 37927
Additional hops: 636
Set signal latency stall time: 10
Reenqueueing errored packet 1212331 at time 37951
Additional hops: 641
Set signal latency stall time: 10
Reenqueueing errored packet 1234919 at time 38627
Additional hops: 647
Set signal latency stall time: 12
Reenqueueing errored packet 1241713 at time 39301
Additional hops: 657
Set signal latency stall time: 20
Reenqueueing errored packet 1252232 at time 39415
Additional hops: 664
Set signal latency stall time: 14
Reenqueueing errored packet 1261952 at time 39566
Class 0:
Packet latency average = 141.303
	minimum = 5
	maximum = 988
Network latency average = 141.289
	minimum = 5
	maximum = 782
Slowest packet = 978423
Flit latency average = 142.545
	minimum = 5
	maximum = 782
Slowest flit = 1246179
Fragmentation average = 0
	minimum = 0
	maximum = 0
Injected packet rate average = 0.499955
	minimum = 0.4888 (at node 1)
	maximum = 0.5108 (at node 4)
Accepted packet rate average = 0.499195
	minimum = 0.4856 (at node 18)
	maximum = 0.5129 (at node 31)
Injected flit rate average = 0.499955
	minimum = 0.4888 (at node 1)
	maximum = 0.5108 (at node 4)
Accepted flit rate average= 0.499195
	minimum = 0.4856 (at node 18)
	maximum = 0.5129 (at node 31)
Injected packet length average = 1
Accepted packet length average = 1
Total in-flight flits = 4705 (4705 measured)
latency change    = 0.104908
throughput change = 0.000719909
Additional hops: 676
Set signal latency stall time: 24
Reenqueueing errored packet 1297672 at time 40735
Additional hops: 680
Set signal latency stall time: 8
Reenqueueing errored packet 1310103 at time 40978
Additional hops: 688
Set signal latency stall time: 16
Reenqueueing errored packet 1306222 at time 41007
Additional hops: 698
Set signal latency stall time: 20
Reenqueueing errored packet 1306849 at time 41128
Additional hops: 702
Set signal latency stall time: 8
Reenqueueing errored packet 1321550 at time 41358
Additional hops: 710
Set signal latency stall time: 16
Reenqueueing errored packet 1313682 at time 41553
Additional hops: 714
Set signal latency stall time: 8
Reenqueueing errored packet 1337273 at time 41815
Additional hops: 720
Set signal latency stall time: 12
Reenqueueing errored packet 1365144 at time 42915
Additional hops: 728
Set signal latency stall time: 16
Reenqueueing errored packet 1390982 at time 43640
Additional hops: 733
Set signal latency stall time: 10
Reenqueueing errored packet 1412506 at time 44179
Additional hops: 740
Set signal latency stall time: 14
Reenqueueing errored packet 1436084 at time 45129
Additional hops: 751
Set signal latency stall time: 22
Reenqueueing errored packet 1446741 at time 45563
Additional hops: 761
Set signal latency stall time: 20
Reenqueueing errored packet 1445228 at time 45696
Additional hops: 763
Set signal latency stall time: 4
Reenqueueing errored packet 1473265 at time 46115
Additional hops: 769
Set signal latency stall time: 12
Reenqueueing errored packet 1485846 at time 46484
Additional hops: 775
Set signal latency stall time: 12
Reenqueueing errored packet 1499499 at time 46941
Additional hops: 783
Set signal latency stall time: 16
Reenqueueing errored packet 1505961 at time 47287
Additional hops: 789
Set signal latency stall time: 12
Reenqueueing errored packet 1531187 at time 48243
Additional hops: 795
Set signal latency stall time: 12
Reenqueueing errored packet 1548357 at time 48439
Additional hops: 803
Set signal latency stall time: 16
Reenqueueing errored packet 1535306 at time 48588
Additional hops: 811
Set signal latency stall time: 16
Reenqueueing errored packet 1562269 at time 48909
Additional hops: 816
Set signal latency stall time: 10
Reenqueueing errored packet 1563472 at time 48995
Additional hops: 826
Set signal latency stall time: 20
Reenqueueing errored packet 1583689 at time 49819
Class 0:
Packet latency average = 147.774
	minimum = 5
	maximum = 1228
Network latency average = 147.76
	minimum = 5
	maximum = 846
Slowest packet = 978423
Flit latency average = 148.346
	minimum = 5
	maximum = 846
Slowest flit = 1403648
Fragmentation average = 0
	minimum = 0
	maximum = 0
Injected packet rate average = 0.499716
	minimum = 0.4902 (at node 1)
	maximum = 0.5096 (at node 59)
Accepted packet rate average = 0.499043
	minimum = 0.48795 (at node 14)
	maximum = 0.5086 (at node 1)
Injected flit rate average = 0.499716
	minimum = 0.4902 (at node 1)
	maximum = 0.5096 (at node 59)
Accepted flit rate average= 0.499043
	minimum = 0.48795 (at node 14)
	maximum = 0.5086 (at node 1)
Injected packet length average = 1
Accepted packet length average = 1
Total in-flight flits = 5081 (5081 measured)
latency change    = 0.0437892
throughput change = 0.000305272
Additional hops: 836
Set signal latency stall time: 20
Reenqueueing errored packet 1596683 at time 50058
Additional hops: 845
Set signal latency stall time: 18
Reenqueueing errored packet 1605109 at time 50399
Additional hops: 850
Set signal latency stall time: 10
Reenqueueing errored packet 1609549 at time 50448
Additional hops: 857
Set signal latency stall time: 14
Reenqueueing errored packet 1618163 at time 50645
Additional hops: 867
Set signal latency stall time: 20
Reenqueueing errored packet 1601864 at time 50695
Additional hops: 878
Set signal latency stall time: 22
Reenqueueing errored packet 1621998 at time 50800
Additional hops: 888
Set signal latency stall time: 20
Reenqueueing errored packet 1642708 at time 51552
Additional hops: 897
Set signal latency stall time: 18
Reenqueueing errored packet 1637454 at time 51579
Additional hops: 905
Set signal latency stall time: 16
Reenqueueing errored packet 1656759 at time 51893
Additional hops: 917
Set signal latency stall time: 24
Reenqueueing errored packet 1673794 at time 52460
Additional hops: 923
Set signal latency stall time: 12
Reenqueueing errored packet 1723857 at time 54088
Additional hops: 932
Set signal latency stall time: 18
Reenqueueing errored packet 1716261 at time 54209
Additional hops: 942
Set signal latency stall time: 20
Reenqueueing errored packet 1735031 at time 54329
Additional hops: 948
Set signal latency stall time: 12
Reenqueueing errored packet 1762611 at time 55139
Additional hops: 952
Set signal latency stall time: 8
Reenqueueing errored packet 1769856 at time 55355
Additional hops: 960
Set signal latency stall time: 16
Additional hops: 969
Set signal latency stall time: 18
Reenqueueing errored packet 1769232 at time 55390
Reenqueueing errored packet 1758080 at time 55393
Additional hops: 978
Set signal latency stall time: 18
Reenqueueing errored packet 1788915 at time 56120
Additional hops: 986
Set signal latency stall time: 16
Reenqueueing errored packet 1791346 at time 56196
Additional hops: 998
Set signal latency stall time: 24
Reenqueueing errored packet 1802769 at time 56584
Additional hops: 1010
Set signal latency stall time: 24
Reenqueueing errored packet 1831267 at time 57519
Additional hops: 1013
Set signal latency stall time: 6
Reenqueueing errored packet 1849097 at time 57824
Additional hops: 1019
Set signal latency stall time: 12
Reenqueueing errored packet 1851438 at time 57986
Additional hops: 1030
Set signal latency stall time: 22
Reenqueueing errored packet 1845369 at time 58149
Additional hops: 1037
Set signal latency stall time: 14
Reenqueueing errored packet 1863588 at time 58598
Additional hops: 1040
Set signal latency stall time: 6
Reenqueueing errored packet 1883153 at time 58878
Additional hops: 1043
Set signal latency stall time: 6
Reenqueueing errored packet 1895373 at time 59260
Additional hops: 1052
Set signal latency stall time: 18
Reenqueueing errored packet 1894288 at time 59389
Additional hops: 1060
Set signal latency stall time: 16
Reenqueueing errored packet 1909361 at time 59953
Additional hops: 1066
Set signal latency stall time: 12
Reenqueueing errored packet 1914359 at time 59987
Class 0:
Packet latency average = 154.409
	minimum = 5
	maximum = 1228
Network latency average = 154.393
	minimum = 5
	maximum = 846
Slowest packet = 978423
Flit latency average = 154.754
	minimum = 5
	maximum = 846
Slowest flit = 1403648
Fragmentation average = 0
	minimum = 0
	maximum = 0
Injected packet rate average = 0.499941
	minimum = 0.493167 (at node 1)
	maximum = 0.508967 (at node 59)
Accepted packet rate average = 0.499027
	minimum = 0.487467 (at node 40)
	maximum = 0.506467 (at node 31)
Injected flit rate average = 0.499941
	minimum = 0.493167 (at node 1)
	maximum = 0.508967 (at node 59)
Accepted flit rate average= 0.499027
	minimum = 0.487467 (at node 40)
	maximum = 0.506467 (at node 31)
Injected packet length average = 1
Accepted packet length average = 1
Total in-flight flits = 5975 (5975 measured)
latency change    = 0.0429662
throughput change = 3.28765e-05
Additional hops: 1078
Set signal latency stall time: 24
Reenqueueing errored packet 1924776 at time 60391
Additional hops: 1085
Set signal latency stall time: 14
Reenqueueing errored packet 1926197 at time 60728
Additional hops: 1093
Set signal latency stall time: 16
Reenqueueing errored packet 1934373 at time 60822
Additional hops: 1099
Set signal latency stall time: 12
Reenqueueing errored packet 1936662 at time 60898
Additional hops: 1105
Set signal latency stall time: 12
Reenqueueing errored packet 1953215 at time 61185
Additional hops: 1107
Set signal latency stall time: 4
Reenqueueing errored packet 1979854 at time 61896
Additional hops: 1110
Set signal latency stall time: 6
Reenqueueing errored packet 1980741 at time 61927
Additional hops: 1119
Set signal latency stall time: 18
Reenqueueing errored packet 1984026 at time 62135
Additional hops: 1126
Set signal latency stall time: 14
Reenqueueing errored packet 1976589 at time 62235
Additional hops: 1135
Set signal latency stall time: 18
Reenqueueing errored packet 1992070 at time 62437
Additional hops: 1143
Set signal latency stall time: 16
Reenqueueing errored packet 1995515 at time 62545
Additional hops: 1150
Set signal latency stall time: 14
Reenqueueing errored packet 1999678 at time 62745
Additional hops: 1153
Set signal latency stall time: 6
Reenqueueing errored packet 2021406 at time 63201
Additional hops: 1162
Set signal latency stall time: 18
Reenqueueing errored packet 2005008 at time 63221
Additional hops: 1166
Set signal latency stall time: 8
Reenqueueing errored packet 2037659 at time 63714
Additional hops: 1175
Set signal latency stall time: 18
Reenqueueing errored packet 2055597 at time 64345
Additional hops: 1180
Set signal latency stall time: 10
Reenqueueing errored packet 2077555 at time 64978
Additional hops: 1187
Set signal latency stall time: 14
Reenqueueing errored packet 2087714 at time 65925
Additional hops: 1194
Set signal latency stall time: 14
Reenqueueing errored packet 2113780 at time 66216
Additional hops: 1203
Set signal latency stall time: 18
Reenqueueing errored packet 2123822 at time 66614
Additional hops: 1210
Set signal latency stall time: 14
Reenqueueing errored packet 2135283 at time 66923
Additional hops: 1217
Set signal latency stall time: 14
Reenqueueing errored packet 2139417 at time 66948
Additional hops: 1224
Set signal latency stall time: 14
Reenqueueing errored packet 2131827 at time 67083
Additional hops: 1234
Set signal latency stall time: 20
Reenqueueing errored packet 2147060 at time 67246
Additional hops: 1242
Set signal latency stall time: 16
Reenqueueing errored packet 2188830 at time 68507
Additional hops: 1248
Set signal latency stall time: 12
Reenqueueing errored packet 2181365 at time 68554
Additional hops: 1257
Set signal latency stall time: 18
Reenqueueing errored packet 2200875 at time 69036
Additional hops: 1269
Set signal latency stall time: 24
Reenqueueing errored packet 2233361 at time 69987
Class 0:
Packet latency average = 160.676
	minimum = 5
	maximum = 1312
Network latency average = 160.659
	minimum = 5
	maximum = 846
Slowest packet = 978423
Flit latency average = 160.909
	minimum = 5
	maximum = 846
Slowest flit = 1403648
Fragmentation average = 0
	minimum = 0
	maximum = 0
Injected packet rate average = 0.4998
	minimum = 0.4932 (at node 17)
	maximum = 0.506175 (at node 59)
Accepted packet rate average = 0.499334
	minimum = 0.4899 (at node 40)
	maximum = 0.505725 (at node 31)
Injected flit rate average = 0.4998
	minimum = 0.4932 (at node 17)
	maximum = 0.506175 (at node 59)
Accepted flit rate average= 0.499334
	minimum = 0.4899 (at node 40)
	maximum = 0.505725 (at node 31)
Injected packet length average = 1
Accepted packet length average = 1
Total in-flight flits = 5412 (5412 measured)
latency change    = 0.0390078
throughput change = 0.000614882
Draining all recorded packets ...
Additional hops: 1275
Set signal latency stall time: 12
Reenqueueing errored packet 2238521 at time 70020
Additional hops: 1286
Set signal latency stall time: 22
Reenqueueing errored packet 2240273 at time 70199
Draining remaining packets ...
Time taken is 71117 cycles
====== Overall Traffic Statistics ======
====== Traffic class 0 ======
Packet latency average = 161.333 (1 samples)
	minimum = 5 (1 samples)
	maximum = 1312 (1 samples)
Network latency average = 161.316 (1 samples)
	minimum = 5 (1 samples)
	maximum = 846 (1 samples)
Flit latency average = 161.626 (1 samples)
	minimum = 5 (1 samples)
	maximum = 846 (1 samples)
Fragmentation average = 0 (1 samples)
	minimum = 0 (1 samples)
	maximum = 0 (1 samples)
Injected packet rate average = 0.4998 (1 samples)
	minimum = 0.4932 (1 samples)
	maximum = 0.506175 (1 samples)
Accepted packet rate average = 0.499334 (1 samples)
	minimum = 0.4899 (1 samples)
	maximum = 0.505725 (1 samples)
Injected flit rate average = 0.4998 (1 samples)
	minimum = 0.4932 (1 samples)
	maximum = 0.506175 (1 samples)
Accepted flit rate average = 0.499334 (1 samples)
	minimum = 0.4899 (1 samples)
	maximum = 0.505725 (1 samples)
Injected packet size average = 1 (1 samples)
Accepted packet size average = 1 (1 samples)
Hops average = 6.24619 (1 samples)
Total run time 142.13
