BEGIN Configuration File: examples/ecc_mesh88_config_1_0.350_link_3
// $Id$

// Copyright (c) 2007-2015, Trustees of The Leland Stanford Junior University
// All rights reserved.
//
// Redistribution and use in source and binary forms, with or without
// modification, are permitted provided that the following conditions are met:
//
// Redistributions of source code must retain the above copyright notice, this
// list of conditions and the following disclaimer.
// Redistributions in binary form must reproduce the above copyright notice,
// this list of conditions and the following disclaimer in the documentation
// and/or other materials provided with the distribution.
//
// THIS SOFTWARE IS PROVIDED BY THE COPYRIGHT HOLDERS AND CONTRIBUTORS "AS IS"
// AND ANY EXPRESS OR IMPLIED WARRANTIES, INCLUDING, BUT NOT LIMITED TO, THE
// IMPLIED WARRANTIES OF MERCHANTABILITY AND FITNESS FOR A PARTICULAR PURPOSE
// ARE DISCLAIMED. IN NO EVENT SHALL THE COPYRIGHT OWNER OR CONTRIBUTORS BE
// LIABLE FOR ANY DIRECT, INDIRECT, INCIDENTAL, SPECIAL, EXEMPLARY, OR
// CONSEQUENTIAL DAMAGES (INCLUDING, BUT NOT LIMITED TO, PROCUREMENT OF
// SUBSTITUTE GOODS OR SERVICES; LOSS OF USE, DATA, OR PROFITS; OR BUSINESS
// INTERRUPTION) HOWEVER CAUSED AND ON ANY THEORY OF LIABILITY, WHETHER IN
// CONTRACT, STRICT LIABILITY, OR TORT (INCLUDING NEGLIGENCE OR OTHERWISE)
// ARISING IN ANY WAY OUT OF THE USE OF THIS SOFTWARE, EVEN IF ADVISED OF THE
// POSSIBILITY OF SUCH DAMAGE.

// Dragonfly
//




vc_buf_size = 256;


wait_for_tail_credit = 0;

//
// Router architecture
//
vc_allocator = separable_input_first; 
sw_allocator = separable_input_first;
alloc_iters  = 1;

credit_delay   = 2;
routing_delay  = 0;
vc_alloc_delay = 1;
sw_alloc_delay = 1;
st_final_delay = 1;

input_speedup     = 1;
output_speedup    = 1;
internal_speedup  = 2.0;


warmup_periods = 3;
sim_count          = 1;

sample_period  = 10000;  


routing_function = dor;
num_vcs     = 2;

priority = none;
traffic       = uniform; 

injection_rate = 0.35;
packet_size = 1;
injection_rate_uses_flits = 1;

topology = mesh;

k  = 8;
n  = 2;

fer = 3;
ecc = link;

watch_out=-;
//watch_file = watch.txt;

ecc = link;

stats_out = examples/ecc_mesh88_config_1_0.350_link_3.m;

END Configuration File: examples/ecc_mesh88_config_1_0.350_link_3
6
4
Received nack credit for flit 349
Requeued flit 349
2
5
Received nack credit for flit 757
Requeued flit 757
Received nack credit for flit 595
Requeued flit 595
1
Received nack credit for flit 688
Requeued flit 688
Received nack credit for flit 998
Requeued flit 998
1
1
Received nack credit for flit 1200
Requeued flit 1200
Received nack credit for flit 1299
Requeued flit 1299
1
5
3
Received nack credit for flit 1729
Requeued flit 1729
Received nack credit for flit 1805
Requeued flit 1805
Received nack credit for flit 1405
Requeued flit 1405
4
Received nack credit for flit 1975
Requeued flit 1975
3
Received nack credit for flit 2521
Requeued flit 2521
4
Received nack credit for flit 2640
Requeued flit 2640
4
Received nack credit for flit 2875
Requeued flit 2875
6
Received nack credit for flit 2927
Requeued flit 2927
2
Received nack credit for flit 3465
Requeued flit 3465
2
1
Received nack credit for flit 3681
Requeued flit 3681
6
Received nack credit for flit 3791
Requeued flit 3791
3
Received nack credit for flit 3653
Requeued flit 3653
1
1
Received nack credit for flit 3954
Requeued flit 3954
Received nack credit for flit 4181
Requeued flit 4181
1
Received nack credit for flit 4206
Requeued flit 4206
Received nack credit for flit 4329
Requeued flit 4329
1
Received nack credit for flit 4773
Requeued flit 4773
6
2
1
Received nack credit for flit 4622
Requeued flit 4622
Received nack credit for flit 4974
Requeued flit 4974
Received nack credit for flit 5062
Requeued flit 5062
5
7
7
7
Received nack credit for flit 4955
Requeued flit 4955
Received nack credit for flit 4981
Requeued flit 4981
Received nack credit for flit 4928
Requeued flit 4928
2
4
Received nack credit for flit 5372
Requeued flit 5372
Received nack credit for flit 5565
Requeued flit 5565
3
4
Received nack credit for flit 6139
Requeued flit 6139
Received nack credit for flit 6148
Requeued flit 6148
3
Received nack credit for flit 6398
Requeued flit 6398
1
Received nack credit for flit 6752
Requeued flit 6752
6
1
Received nack credit for flit 6540
Requeued flit 6540
Received nack credit for flit 7056
Requeued flit 7056
1
6
10
Received nack credit for flit 7597
Requeued flit 7597
Received nack credit for flit 7243
Requeued flit 7243
1
Received nack credit for flit 7042
Requeued flit 7042
5
6
Received nack credit for flit 7538
Requeued flit 7538
Received nack credit for flit 7790
Requeued flit 7790
Received nack credit for flit 7547
Requeued flit 7547
4
9
Received nack credit for flit 8174
Requeued flit 8174
Received nack credit for flit 7615
Requeued flit 7615
4
Received nack credit for flit 8469
Requeued flit 8469
1
Received nack credit for flit 9004
Requeued flit 9004
4
Received nack credit for flit 9078
Requeued flit 9078
1
1
Received nack credit for flit 9494
Requeued flit 9494
7
Received nack credit for flit 9559
Requeued flit 9559
Received nack credit for flit 9122
Requeued flit 9122
2
Received nack credit for flit 9877
Requeued flit 9877
3
4
Received nack credit for flit 10165
Requeued flit 10165
1
Received nack credit for flit 10243
Requeued flit 10243
2
Received nack credit for flit 10501
Requeued flit 10501
Received nack credit for flit 10536
Requeued flit 10536
4
1
Received nack credit for flit 10595
Requeued flit 10595
7
Received nack credit for flit 10843
Requeued flit 10843
Received nack credit for flit 10590
Requeued flit 10590
2
1
2
Received nack credit for flit 11234
Requeued flit 11234
2
Received nack credit for flit 11334
Requeued flit 11334
Received nack credit for flit 11348
Requeued flit 11348
Received nack credit for flit 11390
Requeued flit 11390
2
Received nack credit for flit 11862
Requeued flit 11862
2
Received nack credit for flit 12331
Requeued flit 12331
4
5
Received nack credit for flit 12978
Requeued flit 12978
6
2
Received nack credit for flit 12956
Requeued flit 12956
Received nack credit for flit 13031
Requeued flit 13031
Received nack credit for flit 13334
Requeued flit 13334
1
6
5
Received nack credit for flit 13665
Requeued flit 13665
3
Received nack credit for flit 13335
Requeued flit 13335
Received nack credit for flit 13454
Requeued flit 13454
Received nack credit for flit 13677
Requeued flit 13677
3
4
1
Received nack credit for flit 13979
Requeued flit 13979
Received nack credit for flit 13820
Requeued flit 13820
Received nack credit for flit 13778
Requeued flit 13778
7
Received nack credit for flit 13698
Requeued flit 13698
2
2
3
Received nack credit for flit 14613
Requeued flit 14613
Received nack credit for flit 14607
Requeued flit 14607
Received nack credit for flit 14610
Requeued flit 14610
6
Received nack credit for flit 14566
Requeued flit 14566
3
3
Received nack credit for flit 14932
Requeued flit 14932
Received nack credit for flit 14963
Requeued flit 14963
5
Received nack credit for flit 15133
Requeued flit 15133
1
Received nack credit for flit 15709
Requeued flit 15709
4
5
Received nack credit for flit 15653
Requeued flit 15653
1
7
Received nack credit for flit 15700
Requeued flit 15700
1
Received nack credit for flit 16017
Requeued flit 16017
Received nack credit for flit 15618
Requeued flit 15618
Received nack credit for flit 16187
Requeued flit 16187
6
2
Received nack credit for flit 16283
Requeued flit 16283
5
6
Received nack credit for flit 16710
Requeued flit 16710
4
Received nack credit for flit 16508
Requeued flit 16508
Received nack credit for flit 16615
Requeued flit 16615
Received nack credit for flit 16747
Requeued flit 16747
6
8
Received nack credit for flit 16856
Requeued flit 16856
Received nack credit for flit 16802
Requeued flit 16802
4
Received nack credit for flit 17597
Requeued flit 17597
3
2
Received nack credit for flit 18350
Requeued flit 18350
Received nack credit for flit 18482
Requeued flit 18482
7
7
Received nack credit for flit 18908
Requeued flit 18908
Received nack credit for flit 18907
Requeued flit 18907
3
3
Received nack credit for flit 19329
Requeued flit 19329
Received nack credit for flit 19287
Requeued flit 19287
3
6
2
Received nack credit for flit 19160
Requeued flit 19160
Received nack credit for flit 19489
Requeued flit 19489
1
Received nack credit for flit 19696
Requeued flit 19696
Received nack credit for flit 19869
Requeued flit 19869
4
Received nack credit for flit 20184
Requeued flit 20184
2
Received nack credit for flit 20454
Requeued flit 20454
1
Received nack credit for flit 20860
Requeued flit 20860
1
Received nack credit for flit 21012
Requeued flit 21012
1
1
1
Received nack credit for flit 21291
Requeued flit 21291
Received nack credit for flit 21391
Requeued flit 21391
9
Received nack credit for flit 20995
Requeued flit 20995
1
8
Received nack credit for flit 21409
Requeued flit 21409
Received nack credit for flit 21658
Requeued flit 21658
7
1
1
1
Received nack credit for flit 21154
Requeued flit 21154
Received nack credit for flit 21847
Requeued flit 21847
Received nack credit for flit 21371
Requeued flit 21371
1
Received nack credit for flit 21872
Requeued flit 21872
Received nack credit for flit 21832
Requeued flit 21832
Received nack credit for flit 21998
Requeued flit 21998
1
Received nack credit for flit 22397
Requeued flit 22397
3
Received nack credit for flit 22404
Requeued flit 22404
1
Received nack credit for flit 22837
Requeued flit 22837
4
7
Received nack credit for flit 23036
Requeued flit 23036
Received nack credit for flit 22813
Requeued flit 22813
2
4
Received nack credit for flit 23406
Requeued flit 23406
Received nack credit for flit 23514
Requeued flit 23514
7
7
Received nack credit for flit 23471
Requeued flit 23471
Received nack credit for flit 23541
Requeued flit 23541
6
1
3
Received nack credit for flit 24060
Requeued flit 24060
Received nack credit for flit 23739
Requeued flit 23739
7
Received nack credit for flit 24141
Requeued flit 24141
10
Received nack credit for flit 23957
Requeued flit 23957
Received nack credit for flit 23780
Requeued flit 23780
1
Received nack credit for flit 24605
Requeued flit 24605
1
5
Received nack credit for flit 24594
Requeued flit 24594
Received nack credit for flit 24804
Requeued flit 24804
1
Received nack credit for flit 25307
Requeued flit 25307
1
4
2
1
2
1
Received nack credit for flit 25566
Requeued flit 25566
Received nack credit for flit 25417
Requeued flit 25417
10
Received nack credit for flit 25667
Requeued flit 25667
Received nack credit for flit 25702
Requeued flit 25702
Received nack credit for flit 25562
Requeued flit 25562
3
Received nack credit for flit 25039
Requeued flit 25039
Received nack credit for flit 25781
Requeued flit 25781
2
Received nack credit for flit 26054
Requeued flit 26054
2
Received nack credit for flit 26593
Requeued flit 26593
1
Received nack credit for flit 26819
Requeued flit 26819
3
Received nack credit for flit 26804
Requeued flit 26804
2
4
Received nack credit for flit 27313
Requeued flit 27313
Received nack credit for flit 27206
Requeued flit 27206
1
Received nack credit for flit 28074
Requeued flit 28074
6
Received nack credit for flit 28045
Requeued flit 28045
4
8
10
Received nack credit for flit 28758
Requeued flit 28758
Received nack credit for flit 28405
Requeued flit 28405
1
Received nack credit for flit 28498
Requeued flit 28498
5
Received nack credit for flit 29188
Requeued flit 29188
1
Received nack credit for flit 28936
Requeued flit 28936
Received nack credit for flit 29339
Requeued flit 29339
6
6
Received nack credit for flit 29068
Requeued flit 29068
Received nack credit for flit 29273
Requeued flit 29273
4
Received nack credit for flit 29852
Requeued flit 29852
6
Received nack credit for flit 29769
Requeued flit 29769
5
Received nack credit for flit 29832
Requeued flit 29832
1
Received nack credit for flit 30543
Requeued flit 30543
1
Received nack credit for flit 30808
Requeued flit 30808
1
6
Received nack credit for flit 31564
Requeued flit 31564
Received nack credit for flit 31324
Requeued flit 31324
1
1
5
Received nack credit for flit 31833
Requeued flit 31833
7
Received nack credit for flit 31911
Requeued flit 31911
Received nack credit for flit 31611
Requeued flit 31611
Received nack credit for flit 31556
Requeued flit 31556
6
3
1
Received nack credit for flit 31712
Requeued flit 31712
Received nack credit for flit 31982
Requeued flit 31982
Received nack credit for flit 32210
Requeued flit 32210
3
Received nack credit for flit 32586
Requeued flit 32586
3
Received nack credit for flit 32859
Requeued flit 32859
2
Received nack credit for flit 33398
Requeued flit 33398
2
Received nack credit for flit 33438
Requeued flit 33438
4
Received nack credit for flit 33603
Requeued flit 33603
3
Received nack credit for flit 33854
Requeued flit 33854
2
Received nack credit for flit 34056
Requeued flit 34056
3
6
Received nack credit for flit 34124
Requeued flit 34124
1
Received nack credit for flit 33906
Requeued flit 33906
Received nack credit for flit 34475
Requeued flit 34475
3
3
2
Received nack credit for flit 34514
Requeued flit 34514
Received nack credit for flit 34479
Requeued flit 34479
Received nack credit for flit 34708
Requeued flit 34708
5
3
Received nack credit for flit 35181
Requeued flit 35181
Received nack credit for flit 35002
Requeued flit 35002
2
3
Received nack credit for flit 35462
Requeued flit 35462
1
Received nack credit for flit 35442
Requeued flit 35442
2
Received nack credit for flit 35679
Requeued flit 35679
1
Received nack credit for flit 35712
Requeued flit 35712
Received nack credit for flit 35877
Requeued flit 35877
9
11
4
4
Received nack credit for flit 35539
Requeued flit 35539
1
Received nack credit for flit 35677
Requeued flit 35677
Received nack credit for flit 36139
Requeued flit 36139
Received nack credit for flit 36116
Requeued flit 36116
3
1
Received nack credit for flit 36317
Requeued flit 36317
Received nack credit for flit 36476
Requeued flit 36476
2
Received nack credit for flit 36601
Requeued flit 36601
1
Received nack credit for flit 36791
Requeued flit 36791
Received nack credit for flit 36694
Requeued flit 36694
2
Received nack credit for flit 36990
Requeued flit 36990
8
Received nack credit for flit 36687
Requeued flit 36687
4
Received nack credit for flit 37114
Requeued flit 37114
9
5
1
3
Received nack credit for flit 37242
Requeued flit 37242
Received nack credit for flit 37475
Requeued flit 37475
Received nack credit for flit 37891
Requeued flit 37891
Received nack credit for flit 37776
Requeued flit 37776
1
5
Received nack credit for flit 38396
Requeued flit 38396
6
6
Received nack credit for flit 38200
Requeued flit 38200
5
Received nack credit for flit 38237
Requeued flit 38237
1
Received nack credit for flit 38194
Requeued flit 38194
Received nack credit for flit 38348
Requeued flit 38348
Received nack credit for flit 38742
Requeued flit 38742
11
Received nack credit for flit 38157
Requeued flit 38157
2
3
2
Received nack credit for flit 39184
Requeued flit 39184
Received nack credit for flit 39163
Requeued flit 39163
Received nack credit for flit 39302
Requeued flit 39302
4
6
Received nack credit for flit 39336
Requeued flit 39336
5
Received nack credit for flit 39316
Requeued flit 39316
Received nack credit for flit 39461
Requeued flit 39461
3
5
Received nack credit for flit 39640
Requeued flit 39640
2
Received nack credit for flit 39735
Requeued flit 39735
1
Received nack credit for flit 40059
Requeued flit 40059
Received nack credit for flit 40256
Requeued flit 40256
3
Received nack credit for flit 40273
Requeued flit 40273
1
1
Received nack credit for flit 41171
Requeued flit 41171
Received nack credit for flit 41304
Requeued flit 41304
3
3
Received nack credit for flit 41550
Requeued flit 41550
Received nack credit for flit 41637
Requeued flit 41637
1
6
Received nack credit for flit 42028
Requeued flit 42028
Received nack credit for flit 41724
Requeued flit 41724
4
6
Received nack credit for flit 41988
Requeued flit 41988
Received nack credit for flit 42128
Requeued flit 42128
3
Received nack credit for flit 42471
Requeued flit 42471
1
2
Received nack credit for flit 42774
Requeued flit 42774
Received nack credit for flit 42723
Requeued flit 42723
4
8
3
Received nack credit for flit 42762
Requeued flit 42762
3
Received nack credit for flit 42659
Requeued flit 42659
1
Received nack credit for flit 43049
Requeued flit 43049
6
Received nack credit for flit 43344
Requeued flit 43344
1
Received nack credit for flit 43047
Requeued flit 43047
Received nack credit for flit 43129
Requeued flit 43129
Received nack credit for flit 43491
Requeued flit 43491
4
Received nack credit for flit 43552
Requeued flit 43552
4
1
Received nack credit for flit 43755
Requeued flit 43755
Received nack credit for flit 44015
Requeued flit 44015
1
6
Received nack credit for flit 44361
Requeued flit 44361
Received nack credit for flit 44034
Requeued flit 44034
3
1
2
Received nack credit for flit 44538
Requeued flit 44538
1
1
1
4
Received nack credit for flit 44781
Requeued flit 44781
Received nack credit for flit 44895
Requeued flit 44895
Received nack credit for flit 44917
Requeued flit 44917
Received nack credit for flit 44958
Requeued flit 44958
5
1
Received nack credit for flit 44733
Requeued flit 44733
1
Received nack credit for flit 44808
Requeued flit 44808
8
Received nack credit for flit 44800
Requeued flit 44800
Received nack credit for flit 45098
Requeued flit 45098
Received nack credit for flit 45147
Requeued flit 45147
Received nack credit for flit 44672
Requeued flit 44672
1
Received nack credit for flit 45348
Requeued flit 45348
1
1
1
Received nack credit for flit 45656
Requeued flit 45656
Received nack credit for flit 45742
Requeued flit 45742
Received nack credit for flit 45749
Requeued flit 45749
8
Received nack credit for flit 45349
Requeued flit 45349
2
9
4
Received nack credit for flit 46022
Requeued flit 46022
Received nack credit for flit 45465
Requeued flit 45465
Received nack credit for flit 45979
Requeued flit 45979
1
Received nack credit for flit 46314
Requeued flit 46314
3
Received nack credit for flit 46267
Requeued flit 46267
5
4
Received nack credit for flit 46383
Requeued flit 46383
Received nack credit for flit 46591
Requeued flit 46591
1
Received nack credit for flit 46926
Requeued flit 46926
2
8
2
Received nack credit for flit 47004
Requeued flit 47004
Received nack credit for flit 47099
Requeued flit 47099
Received nack credit for flit 46471
Requeued flit 46471
12
4
Received nack credit for flit 47678
Requeued flit 47678
8
1
Received nack credit for flit 47036
Requeued flit 47036
2
Received nack credit for flit 47627
Requeued flit 47627
Received nack credit for flit 48156
Requeued flit 48156
2
Received nack credit for flit 48123
Requeued flit 48123
Received nack credit for flit 48281
Requeued flit 48281
8
Received nack credit for flit 48058
Requeued flit 48058
1
Received nack credit for flit 48706
Requeued flit 48706
1
4
Received nack credit for flit 48982
Requeued flit 48982
Received nack credit for flit 49033
Requeued flit 49033
5
2
Received nack credit for flit 49157
Requeued flit 49157
Received nack credit for flit 49489
Requeued flit 49489
5
1
Received nack credit for flit 49482
Requeued flit 49482
4
Received nack credit for flit 49812
Requeued flit 49812
Received nack credit for flit 49724
Requeued flit 49724
4
1
Received nack credit for flit 49724
Requeued flit 49724
1
5
Received nack credit for flit 50189
Requeued flit 50189
Received nack credit for flit 50241
Requeued flit 50241
Received nack credit for flit 49970
Requeued flit 49970
4
1
Received nack credit for flit 50686
Requeued flit 50686
Received nack credit for flit 50496
Requeued flit 50496
4
Received nack credit for flit 50857
Requeued flit 50857
1
Received nack credit for flit 51211
Requeued flit 51211
2
Received nack credit for flit 51333
Requeued flit 51333
4
4
Received nack credit for flit 51415
Requeued flit 51415
Received nack credit for flit 51489
Requeued flit 51489
1
Received nack credit for flit 52091
Requeued flit 52091
1
Received nack credit for flit 52384
Requeued flit 52384
2
Received nack credit for flit 52472
Requeued flit 52472
3
Received nack credit for flit 52554
Requeued flit 52554
6
4
Received nack credit for flit 52577
Requeued flit 52577
6
8
Received nack credit for flit 52839
Requeued flit 52839
1
Received nack credit for flit 52610
Requeued flit 52610
Received nack credit for flit 52748
Requeued flit 52748
Received nack credit for flit 53211
Requeued flit 53211
2
2
4
1
Received nack credit for flit 53276
Requeued flit 53276
Received nack credit for flit 53408
Requeued flit 53408
Received nack credit for flit 53339
Requeued flit 53339
Received nack credit for flit 53194
Requeued flit 53194
1
Received nack credit for flit 53578
Requeued flit 53578
1
Received nack credit for flit 54080
Requeued flit 54080
1
3
Received nack credit for flit 54388
Requeued flit 54388
Received nack credit for flit 54387
Requeued flit 54387
1
Received nack credit for flit 54819
Requeued flit 54819
2
5
Received nack credit for flit 55085
Requeued flit 55085
Received nack credit for flit 54949
Requeued flit 54949
3
1
6
Received nack credit for flit 55529
Requeued flit 55529
4
Received nack credit for flit 55741
Requeued flit 55741
Received nack credit for flit 55401
Requeued flit 55401
6
Received nack credit for flit 55597
Requeued flit 55597
1
Received nack credit for flit 55608
Requeued flit 55608
Received nack credit for flit 56085
Requeued flit 56085
4
8
2
Received nack credit for flit 56033
Requeued flit 56033
3
Received nack credit for flit 55906
Requeued flit 55906
Received nack credit for flit 56515
Requeued flit 56515
Received nack credit for flit 56488
Requeued flit 56488
4
2
Received nack credit for flit 56515
Requeued flit 56515
Received nack credit for flit 56898
Requeued flit 56898
1
5
2
Received nack credit for flit 57173
Requeued flit 57173
Received nack credit for flit 57202
Requeued flit 57202
Received nack credit for flit 56902
Requeued flit 56902
5
2
Received nack credit for flit 57401
Requeued flit 57401
1
Received nack credit for flit 57663
Requeued flit 57663
Received nack credit for flit 57802
Requeued flit 57802
12
Received nack credit for flit 57176
Requeued flit 57176
1
Received nack credit for flit 58603
Requeued flit 58603
2
6
Received nack credit for flit 58950
Requeued flit 58950
Received nack credit for flit 58792
Requeued flit 58792
2
1
Received nack credit for flit 59248
Requeued flit 59248
Received nack credit for flit 59364
Requeued flit 59364
1
Received nack credit for flit 60169
Requeued flit 60169
3
Received nack credit for flit 60277
Requeued flit 60277
7
9
3
Received nack credit for flit 60202
Requeued flit 60202
Received nack credit for flit 60695
Requeued flit 60695
4
Received nack credit for flit 60429
Requeued flit 60429
2
Received nack credit for flit 60756
Requeued flit 60756
5
Received nack credit for flit 61006
Requeued flit 61006
Received nack credit for flit 60896
Requeued flit 60896
4
1
Received nack credit for flit 61477
Requeued flit 61477
Received nack credit for flit 61727
Requeued flit 61727
4
4
Received nack credit for flit 61700
Requeued flit 61700
Received nack credit for flit 61749
Requeued flit 61749
7
1
6
4
Received nack credit for flit 61596
Requeued flit 61596
Received nack credit for flit 61734
Requeued flit 61734
Received nack credit for flit 62125
Requeued flit 62125
Received nack credit for flit 61979
Requeued flit 61979
11
1
Received nack credit for flit 62481
Requeued flit 62481
4
Received nack credit for flit 61781
Requeued flit 61781
Received nack credit for flit 62378
Requeued flit 62378
1
1
Received nack credit for flit 62935
Requeued flit 62935
Received nack credit for flit 62980
Requeued flit 62980
1
Received nack credit for flit 63104
Requeued flit 63104
1
Received nack credit for flit 63310
Requeued flit 63310
1
Received nack credit for flit 63420
Requeued flit 63420
3
6
Received nack credit for flit 63369
Requeued flit 63369
2
Received nack credit for flit 63585
Requeued flit 63585
1
6
Received nack credit for flit 63774
Requeued flit 63774
Received nack credit for flit 63905
Requeued flit 63905
Received nack credit for flit 63634
Requeued flit 63634
2
4
Received nack credit for flit 64066
Requeued flit 64066
Received nack credit for flit 63940
Requeued flit 63940
6
3
5
Received nack credit for flit 64025
Requeued flit 64025
1
Received nack credit for flit 64162
Requeued flit 64162
Received nack credit for flit 64251
Requeued flit 64251
Received nack credit for flit 64593
Requeued flit 64593
1
Received nack credit for flit 64806
Requeued flit 64806
1
1
Received nack credit for flit 64958
Requeued flit 64958
1
Received nack credit for flit 65094
Requeued flit 65094
Received nack credit for flit 65167
Requeued flit 65167
2
2
Received nack credit for flit 65347
Requeued flit 65347
Received nack credit for flit 65423
Requeued flit 65423
6
Received nack credit for flit 65285
Requeued flit 65285
3
9
Received nack credit for flit 65889
Requeued flit 65889
9
Received nack credit for flit 65440
Requeued flit 65440
Received nack credit for flit 65587
Requeued flit 65587
1
Received nack credit for flit 66485
Requeued flit 66485
4
5
Received nack credit for flit 66447
Requeued flit 66447
Received nack credit for flit 66360
Requeued flit 66360
1
1
Received nack credit for flit 66858
Requeued flit 66858
Received nack credit for flit 66947
Requeued flit 66947
10
2
1
Received nack credit for flit 66610
Requeued flit 66610
Received nack credit for flit 67419
Requeued flit 67419
Received nack credit for flit 67338
Requeued flit 67338
1
3
3
Received nack credit for flit 67470
Requeued flit 67470
Received nack credit for flit 67461
Requeued flit 67461
Received nack credit for flit 67660
Requeued flit 67660
6
7
Received nack credit for flit 67382
Requeued flit 67382
Received nack credit for flit 67442
Requeued flit 67442
1
2
2
Received nack credit for flit 68085
Requeued flit 68085
Received nack credit for flit 68032
Requeued flit 68032
Received nack credit for flit 68081
Requeued flit 68081
1
1
1
2
Received nack credit for flit 68438
Requeued flit 68438
Received nack credit for flit 68402
Requeued flit 68402
1
Received nack credit for flit 68323
Requeued flit 68323
Received nack credit for flit 68461
Requeued flit 68461
5
Received nack credit for flit 68551
Requeued flit 68551
Received nack credit for flit 68440
Requeued flit 68440
1
Received nack credit for flit 68848
Requeued flit 68848
3
3
Received nack credit for flit 69375
Requeued flit 69375
Received nack credit for flit 69387
Requeued flit 69387
6
2
Received nack credit for flit 69457
Requeued flit 69457
Received nack credit for flit 69764
Requeued flit 69764
1
Received nack credit for flit 70026
Requeued flit 70026
4
4
Received nack credit for flit 70166
Requeued flit 70166
Received nack credit for flit 70234
Requeued flit 70234
10
9
2
1
Received nack credit for flit 69905
Requeued flit 69905
Received nack credit for flit 70657
Requeued flit 70657
Received nack credit for flit 70175
Requeued flit 70175
6
Received nack credit for flit 70735
Requeued flit 70735
1
4
5
Received nack credit for flit 70982
Requeued flit 70982
Received nack credit for flit 70858
Requeued flit 70858
Received nack credit for flit 70804
Requeued flit 70804
Received nack credit for flit 70549
Requeued flit 70549
3
1
1
Received nack credit for flit 71165
Requeued flit 71165
Received nack credit for flit 71328
Requeued flit 71328
Received nack credit for flit 71320
Requeued flit 71320
1
Received nack credit for flit 71611
Requeued flit 71611
2
6
7
Received nack credit for flit 71502
Requeued flit 71502
Received nack credit for flit 71754
Requeued flit 71754
2
Received nack credit for flit 71360
Requeued flit 71360
Received nack credit for flit 71987
Requeued flit 71987
2
2
4
Received nack credit for flit 72370
Requeued flit 72370
Received nack credit for flit 72467
Requeued flit 72467
5
Received nack credit for flit 72368
Requeued flit 72368
Received nack credit for flit 72420
Requeued flit 72420
1
6
Received nack credit for flit 72912
Requeued flit 72912
8
Received nack credit for flit 72740
Requeued flit 72740
1
Received nack credit for flit 72727
Requeued flit 72727
8
6
Received nack credit for flit 73377
Requeued flit 73377
Received nack credit for flit 73201
Requeued flit 73201
Received nack credit for flit 72969
Requeued flit 72969
4
Received nack credit for flit 73528
Requeued flit 73528
3
Received nack credit for flit 73809
Requeued flit 73809
3
Received nack credit for flit 73964
Requeued flit 73964
1
Received nack credit for flit 74277
Requeued flit 74277
5
6
Received nack credit for flit 74178
Requeued flit 74178
1
9
2
2
Received nack credit for flit 74633
Requeued flit 74633
5
Received nack credit for flit 74255
Requeued flit 74255
Received nack credit for flit 74079
Requeued flit 74079
Received nack credit for flit 74497
Requeued flit 74497
Received nack credit for flit 74645
Requeued flit 74645
Received nack credit for flit 74687
Requeued flit 74687
3
1
9
Received nack credit for flit 74892
Requeued flit 74892
Received nack credit for flit 74597
Requeued flit 74597
Received nack credit for flit 75199
Requeued flit 75199
7
Received nack credit for flit 74900
Requeued flit 74900
4
3
2
Received nack credit for flit 75511
Requeued flit 75511
Received nack credit for flit 75672
Requeued flit 75672
Received nack credit for flit 75567
Requeued flit 75567
5
Received nack credit for flit 75824
Requeued flit 75824
5
1
1
Received nack credit for flit 76418
Requeued flit 76418
Received nack credit for flit 76840
Requeued flit 76840
Received nack credit for flit 76786
Requeued flit 76786
2
Received nack credit for flit 76968
Requeued flit 76968
4
Received nack credit for flit 77158
Requeued flit 77158
9
2
3
Received nack credit for flit 77242
Requeued flit 77242
Received nack credit for flit 77888
Requeued flit 77888
Received nack credit for flit 77835
Requeued flit 77835
4
3
Received nack credit for flit 78005
Requeued flit 78005
Received nack credit for flit 77914
Requeued flit 77914
8
3
Received nack credit for flit 77786
Requeued flit 77786
Received nack credit for flit 78185
Requeued flit 78185
4
1
Received nack credit for flit 78478
Requeued flit 78478
1
6
Received nack credit for flit 78780
Requeued flit 78780
Received nack credit for flit 78871
Requeued flit 78871
Received nack credit for flit 78548
Requeued flit 78548
8
1
Received nack credit for flit 78787
Requeued flit 78787
Received nack credit for flit 79377
Requeued flit 79377
4
6
3
5
Received nack credit for flit 79445
Requeued flit 79445
Received nack credit for flit 79265
Requeued flit 79265
Received nack credit for flit 79562
Requeued flit 79562
Received nack credit for flit 79395
Requeued flit 79395
7
Received nack credit for flit 79578
Requeued flit 79578
8
3
Received nack credit for flit 79767
Requeued flit 79767
Received nack credit for flit 80208
Requeued flit 80208
2
Received nack credit for flit 80454
Requeued flit 80454
3
Received nack credit for flit 81018
Requeued flit 81018
1
4
6
Received nack credit for flit 81229
Requeued flit 81229
Received nack credit for flit 81423
Requeued flit 81423
Received nack credit for flit 81113
Requeued flit 81113
2
1
5
Received nack credit for flit 81955
Requeued flit 81955
Received nack credit for flit 81791
Requeued flit 81791
Received nack credit for flit 82135
Requeued flit 82135
4
1
Received nack credit for flit 82149
Requeued flit 82149
Received nack credit for flit 82521
Requeued flit 82521
1
1
1
Received nack credit for flit 82687
Requeued flit 82687
Received nack credit for flit 82668
Requeued flit 82668
1
Received nack credit for flit 82807
Requeued flit 82807
Received nack credit for flit 82849
Requeued flit 82849
5
3
7
2
Received nack credit for flit 82888
Requeued flit 82888
Received nack credit for flit 82747
Requeued flit 82747
Received nack credit for flit 83054
Requeued flit 83054
5
1
Received nack credit for flit 82640
Requeued flit 82640
Received nack credit for flit 82878
Requeued flit 82878
Received nack credit for flit 83251
Requeued flit 83251
4
Received nack credit for flit 83197
Requeued flit 83197
5
Received nack credit for flit 83612
Requeued flit 83612
6
Received nack credit for flit 83629
Requeued flit 83629
1
Received nack credit for flit 84218
Requeued flit 84218
5
1
1
Received nack credit for flit 84199
Requeued flit 84199
Received nack credit for flit 84585
Requeued flit 84585
Received nack credit for flit 84501
Requeued flit 84501
2
Received nack credit for flit 84927
Requeued flit 84927
2
1
Received nack credit for flit 85198
Requeued flit 85198
Received nack credit for flit 85276
Requeued flit 85276
2
9
4
Received nack credit for flit 85390
Requeued flit 85390
2
Received nack credit for flit 85242
Requeued flit 85242
Received nack credit for flit 84988
Requeued flit 84988
Received nack credit for flit 85556
Requeued flit 85556
7
7
Received nack credit for flit 85401
Requeued flit 85401
Received nack credit for flit 85475
Requeued flit 85475
2
Received nack credit for flit 86008
Requeued flit 86008
10
Received nack credit for flit 85796
Requeued flit 85796
1
1
Received nack credit for flit 86633
Requeued flit 86633
1
Received nack credit for flit 86652
Requeued flit 86652
Received nack credit for flit 86805
Requeued flit 86805
3
1
Received nack credit for flit 87119
Requeued flit 87119
Received nack credit for flit 86923
Requeued flit 86923
1
Received nack credit for flit 87257
Requeued flit 87257
5
Received nack credit for flit 87380
Requeued flit 87380
1
7
1
2
3
Received nack credit for flit 88397
Requeued flit 88397
Received nack credit for flit 88495
Requeued flit 88495
1
Received nack credit for flit 88045
Requeued flit 88045
Received nack credit for flit 88491
Requeued flit 88491
Received nack credit for flit 88395
Requeued flit 88395
Received nack credit for flit 88625
Requeued flit 88625
3
Received nack credit for flit 88703
Requeued flit 88703
7
2
Received nack credit for flit 88515
Requeued flit 88515
Received nack credit for flit 88985
Requeued flit 88985
2
Received nack credit for flit 89120
Requeued flit 89120
14
4
Received nack credit for flit 89117
Requeued flit 89117
5
1
Received nack credit for flit 89529
Requeued flit 89529
Received nack credit for flit 89232
Requeued flit 89232
Received nack credit for flit 88479
Requeued flit 88479
2
Received nack credit for flit 89623
Requeued flit 89623
1
1
6
Received nack credit for flit 89853
Requeued flit 89853
Received nack credit for flit 89929
Requeued flit 89929
Received nack credit for flit 89566
Requeued flit 89566
2
1
Received nack credit for flit 90104
Requeued flit 90104
Received nack credit for flit 90261
Requeued flit 90261
5
5
1
4
Received nack credit for flit 90151
Requeued flit 90151
Received nack credit for flit 90253
Requeued flit 90253
Received nack credit for flit 90498
Requeued flit 90498
11
Received nack credit for flit 90093
Requeued flit 90093
Received nack credit for flit 89882
Requeued flit 89882
2
3
Received nack credit for flit 90776
Requeued flit 90776
1
Received nack credit for flit 90749
Requeued flit 90749
1
Received nack credit for flit 91024
Requeued flit 91024
Received nack credit for flit 91091
Requeued flit 91091
2
Received nack credit for flit 91208
Requeued flit 91208
1
Received nack credit for flit 91776
Requeued flit 91776
1
Received nack credit for flit 92002
Requeued flit 92002
6
1
8
Received nack credit for flit 92014
Requeued flit 92014
Received nack credit for flit 92433
Requeued flit 92433
Received nack credit for flit 91909
Requeued flit 91909
5
3
Received nack credit for flit 92319
Requeued flit 92319
5
Received nack credit for flit 92544
Requeued flit 92544
Received nack credit for flit 92507
Requeued flit 92507
1
5
Received nack credit for flit 93002
Requeued flit 93002
Received nack credit for flit 92741
Requeued flit 92741
9
1
Received nack credit for flit 92802
Requeued flit 92802
Received nack credit for flit 93463
Requeued flit 93463
2
2
Received nack credit for flit 93743
Requeued flit 93743
Received nack credit for flit 93842
Requeued flit 93842
3
Received nack credit for flit 94159
Requeued flit 94159
3
2
1
Received nack credit for flit 94331
Requeued flit 94331
Received nack credit for flit 94393
Requeued flit 94393
Received nack credit for flit 94547
Requeued flit 94547
3
Received nack credit for flit 94331
Requeued flit 94331
6
3
5
Received nack credit for flit 94543
Requeued flit 94543
Received nack credit for flit 94830
Requeued flit 94830
Received nack credit for flit 94696
Requeued flit 94696
5
Received nack credit for flit 94980
Requeued flit 94980
6
Received nack credit for flit 95111
Requeued flit 95111
3
Received nack credit for flit 95487
Requeued flit 95487
4
2
11
Received nack credit for flit 95673
Requeued flit 95673
Received nack credit for flit 95940
Requeued flit 95940
Received nack credit for flit 95392
Requeued flit 95392
6
7
Received nack credit for flit 95946
Requeued flit 95946
5
1
Received nack credit for flit 95974
Requeued flit 95974
Received nack credit for flit 96177
Requeued flit 96177
Received nack credit for flit 96566
Requeued flit 96566
2
1
5
Received nack credit for flit 97060
Requeued flit 97060
Received nack credit for flit 97211
Requeued flit 97211
Received nack credit for flit 96969
Requeued flit 96969
5
Received nack credit for flit 97222
Requeued flit 97222
3
1
Received nack credit for flit 97717
Requeued flit 97717
Received nack credit for flit 97919
Requeued flit 97919
5
Received nack credit for flit 98078
Requeued flit 98078
1
Received nack credit for flit 98692
Requeued flit 98692
9
Received nack credit for flit 98243
Requeued flit 98243
4
2
Received nack credit for flit 99493
Requeued flit 99493
2
Received nack credit for flit 99793
Requeued flit 99793
1
1
Received nack credit for flit 99805
Requeued flit 99805
1
Received nack credit for flit 99960
Requeued flit 99960
9
Received nack credit for flit 100027
Requeued flit 100027
Received nack credit for flit 100024
Requeued flit 100024
Received nack credit for flit 99508
Requeued flit 99508
5
11
3
1
Received nack credit for flit 100014
Requeued flit 100014
Received nack credit for flit 99617
Requeued flit 99617
Received nack credit for flit 100286
Requeued flit 100286
Received nack credit for flit 100462
Requeued flit 100462
5
3
Received nack credit for flit 100543
Requeued flit 100543
Received nack credit for flit 100705
Requeued flit 100705
1
Received nack credit for flit 101443
Requeued flit 101443
1
2
1
Received nack credit for flit 101771
Requeued flit 101771
4
Received nack credit for flit 101787
Requeued flit 101787
Received nack credit for flit 101890
Requeued flit 101890
Received nack credit for flit 101683
Requeued flit 101683
1
Received nack credit for flit 102845
Requeued flit 102845
2
5
Received nack credit for flit 102845
Requeued flit 102845
Received nack credit for flit 102853
Requeued flit 102853
3
2
4
2
Received nack credit for flit 103179
Requeued flit 103179
2
3
2
Received nack credit for flit 103362
Requeued flit 103362
Received nack credit for flit 103305
Requeued flit 103305
3
Received nack credit for flit 103287
Requeued flit 103287
Received nack credit for flit 103231
Requeued flit 103231
Received nack credit for flit 103381
Requeued flit 103381
Received nack credit for flit 103394
Requeued flit 103394
7
4
4
Received nack credit for flit 103718
Requeued flit 103718
4
Received nack credit for flit 103517
Requeued flit 103517
Received nack credit for flit 103818
Requeued flit 103818
1
Received nack credit for flit 103928
Requeued flit 103928
7
1
Received nack credit for flit 104190
Requeued flit 104190
Received nack credit for flit 103790
Requeued flit 103790
Received nack credit for flit 104307
Requeued flit 104307
3
3
Received nack credit for flit 104281
Requeued flit 104281
9
1
3
Received nack credit for flit 104377
Requeued flit 104377
Received nack credit for flit 103718
Requeued flit 103718
Received nack credit for flit 104616
Requeued flit 104616
Received nack credit for flit 104501
Requeued flit 104501
1
4
Received nack credit for flit 104853
Requeued flit 104853
4
Received nack credit for flit 104821
Requeued flit 104821
Received nack credit for flit 104858
Requeued flit 104858
7
9
3
Received nack credit for flit 104689
Requeued flit 104689
Received nack credit for flit 105085
Requeued flit 105085
Received nack credit for flit 104438
Requeued flit 104438
6
Received nack credit for flit 105204
Requeued flit 105204
6
3
2
Received nack credit for flit 105976
Requeued flit 105976
2
Received nack credit for flit 106317
Requeued flit 106317
Received nack credit for flit 106519
Requeued flit 106519
Received nack credit for flit 106503
Requeued flit 106503
9
1
Received nack credit for flit 106377
Requeued flit 106377
Received nack credit for flit 107121
Requeued flit 107121
2
6
1
Received nack credit for flit 107383
Requeued flit 107383
Received nack credit for flit 106977
Requeued flit 106977
Received nack credit for flit 107554
Requeued flit 107554
7
Received nack credit for flit 107279
Requeued flit 107279
1
4
Received nack credit for flit 108023
Requeued flit 108023
4
Received nack credit for flit 107884
Requeued flit 107884
Received nack credit for flit 107902
Requeued flit 107902
3
Received nack credit for flit 108142
Requeued flit 108142
1
Received nack credit for flit 108440
Requeued flit 108440
5
2
4
6
Received nack credit for flit 108363
Requeued flit 108363
1
Received nack credit for flit 108665
Requeued flit 108665
1
Received nack credit for flit 108580
Requeued flit 108580
1
Received nack credit for flit 108431
Requeued flit 108431
Received nack credit for flit 108836
Requeued flit 108836
1
Received nack credit for flit 108884
Requeued flit 108884
Received nack credit for flit 109016
Requeued flit 109016
3
1
Received nack credit for flit 108968
Requeued flit 108968
Received nack credit for flit 108955
Requeued flit 108955
Received nack credit for flit 109248
Requeued flit 109248
1
2
Received nack credit for flit 109404
Requeued flit 109404
Received nack credit for flit 109452
Requeued flit 109452
3
Received nack credit for flit 109471
Requeued flit 109471
2
2
Received nack credit for flit 109808
Requeued flit 109808
Received nack credit for flit 109818
Requeued flit 109818
1
1
Received nack credit for flit 110107
Requeued flit 110107
Received nack credit for flit 110210
Requeued flit 110210
2
Received nack credit for flit 110652
Requeued flit 110652
2
1
Received nack credit for flit 110961
Requeued flit 110961
Received nack credit for flit 111175
Requeued flit 111175
2
2
Received nack credit for flit 111374
Requeued flit 111374
Received nack credit for flit 111332
Requeued flit 111332
1
1
Received nack credit for flit 111917
Requeued flit 111917
Received nack credit for flit 112022
Requeued flit 112022
1
1
Received nack credit for flit 112110
Requeued flit 112110
Received nack credit for flit 112200
Requeued flit 112200
1
4
Received nack credit for flit 112328
Requeued flit 112328
7
Received nack credit for flit 112123
Requeued flit 112123
4
Received nack credit for flit 112455
Requeued flit 112455
Received nack credit for flit 112090
Requeued flit 112090
1
1
Received nack credit for flit 113180
Requeued flit 113180
Received nack credit for flit 113213
Requeued flit 113213
2
3
Received nack credit for flit 113359
Requeued flit 113359
1
Received nack credit for flit 113320
Requeued flit 113320
Received nack credit for flit 113555
Requeued flit 113555
3
4
2
Received nack credit for flit 113890
Requeued flit 113890
Received nack credit for flit 114036
Requeued flit 114036
Received nack credit for flit 113853
Requeued flit 113853
2
Received nack credit for flit 114201
Requeued flit 114201
2
5
Received nack credit for flit 114834
Requeued flit 114834
Received nack credit for flit 114737
Requeued flit 114737
1
5
2
Received nack credit for flit 115351
Requeued flit 115351
7
Received nack credit for flit 115378
Requeued flit 115378
Received nack credit for flit 115111
Requeued flit 115111
1
Received nack credit for flit 115060
Requeued flit 115060
Received nack credit for flit 115596
Requeued flit 115596
1
1
Received nack credit for flit 115944
Requeued flit 115944
Received nack credit for flit 115935
Requeued flit 115935
1
7
1
Received nack credit for flit 115729
Requeued flit 115729
Received nack credit for flit 116148
Requeued flit 116148
3
Received nack credit for flit 116262
Requeued flit 116262
Received nack credit for flit 116171
Requeued flit 116171
6
2
Received nack credit for flit 116792
Requeued flit 116792
3
Received nack credit for flit 117162
Requeued flit 117162
Received nack credit for flit 117307
Requeued flit 117307
6
Received nack credit for flit 117381
Requeued flit 117381
1
Received nack credit for flit 117966
Requeued flit 117966
7
6
Received nack credit for flit 118020
Requeued flit 118020
Received nack credit for flit 118043
Requeued flit 118043
1
Received nack credit for flit 118886
Requeued flit 118886
1
4
1
Received nack credit for flit 119288
Requeued flit 119288
Received nack credit for flit 119137
Requeued flit 119137
Received nack credit for flit 119376
Requeued flit 119376
6
Received nack credit for flit 119705
Requeued flit 119705
3
3
3
Received nack credit for flit 120087
Requeued flit 120087
Received nack credit for flit 120062
Requeued flit 120062
1
9
2
Received nack credit for flit 120647
Requeued flit 120647
7
Received nack credit for flit 120122
Requeued flit 120122
4
Received nack credit for flit 120684
Requeued flit 120684
Received nack credit for flit 120384
Requeued flit 120384
Received nack credit for flit 120643
Requeued flit 120643
1
Received nack credit for flit 121056
Requeued flit 121056
1
Received nack credit for flit 121286
Requeued flit 121286
1
1
Received nack credit for flit 121485
Requeued flit 121485
Received nack credit for flit 121550
Requeued flit 121550
6
1
Received nack credit for flit 121306
Requeued flit 121306
Received nack credit for flit 121696
Requeued flit 121696
5
2
Received nack credit for flit 121661
Requeued flit 121661
Received nack credit for flit 121931
Requeued flit 121931
6
Received nack credit for flit 121877
Requeued flit 121877
2
Received nack credit for flit 122459
Requeued flit 122459
7
1
Received nack credit for flit 122545
Requeued flit 122545
Received nack credit for flit 123059
Requeued flit 123059
4
2
Received nack credit for flit 123051
Requeued flit 123051
2
Received nack credit for flit 123256
Requeued flit 123256
Received nack credit for flit 123403
Requeued flit 123403
4
6
6
1
2
Received nack credit for flit 123247
Requeued flit 123247
Received nack credit for flit 123390
Requeued flit 123390
Received nack credit for flit 123230
Requeued flit 123230
3
Received nack credit for flit 123499
Requeued flit 123499
Received nack credit for flit 123655
Requeued flit 123655
Received nack credit for flit 123623
Requeued flit 123623
2
5
6
Received nack credit for flit 123693
Requeued flit 123693
Received nack credit for flit 123883
Requeued flit 123883
Received nack credit for flit 123615
Requeued flit 123615
1
7
Received nack credit for flit 124371
Requeued flit 124371
Received nack credit for flit 124008
Requeued flit 124008
4
7
Received nack credit for flit 124391
Requeued flit 124391
Received nack credit for flit 124270
Requeued flit 124270
2
10
7
Received nack credit for flit 124726
Requeued flit 124726
Received nack credit for flit 124203
Requeued flit 124203
Received nack credit for flit 124463
Requeued flit 124463
2
2
Received nack credit for flit 124984
Requeued flit 124984
Received nack credit for flit 125016
Requeued flit 125016
3
3
Received nack credit for flit 125126
Requeued flit 125126
Received nack credit for flit 125158
Requeued flit 125158
4
3
Received nack credit for flit 125187
Requeued flit 125187
8
Received nack credit for flit 125388
Requeued flit 125388
Received nack credit for flit 125119
Requeued flit 125119
9
Received nack credit for flit 125348
Requeued flit 125348
5
Received nack credit for flit 125752
Requeued flit 125752
4
Received nack credit for flit 126044
Requeued flit 126044
6
2
Received nack credit for flit 126014
Requeued flit 126014
Received nack credit for flit 126471
Requeued flit 126471
7
5
2
Received nack credit for flit 126531
Requeued flit 126531
2
Received nack credit for flit 126678
Requeued flit 126678
2
Received nack credit for flit 126924
Requeued flit 126924
2
Received nack credit for flit 127025
Requeued flit 127025
Received nack credit for flit 127121
Requeued flit 127121
2
Received nack credit for flit 127063
Requeued flit 127063
1
Received nack credit for flit 127323
Requeued flit 127323
Received nack credit for flit 127502
Requeued flit 127502
8
Received nack credit for flit 127261
Requeued flit 127261
7
Received nack credit for flit 127523
Requeued flit 127523
6
Received nack credit for flit 128062
Requeued flit 128062
1
8
Received nack credit for flit 129068
Requeued flit 129068
4
1
1
Received nack credit for flit 128569
Requeued flit 128569
Received nack credit for flit 129216
Requeued flit 129216
Received nack credit for flit 129234
Requeued flit 129234
Received nack credit for flit 128996
Requeued flit 128996
4
8
Received nack credit for flit 129581
Requeued flit 129581
Received nack credit for flit 129351
Requeued flit 129351
4
Received nack credit for flit 129905
Requeued flit 129905
1
Received nack credit for flit 130457
Requeued flit 130457
1
Received nack credit for flit 130632
Requeued flit 130632
5
9
Received nack credit for flit 130781
Requeued flit 130781
10
3
Received nack credit for flit 130558
Requeued flit 130558
Received nack credit for flit 131033
Requeued flit 131033
6
Received nack credit for flit 130536
Requeued flit 130536
Received nack credit for flit 130996
Requeued flit 130996
6
1
Received nack credit for flit 131547
Requeued flit 131547
Received nack credit for flit 131225
Requeued flit 131225
6
1
Received nack credit for flit 131840
Requeued flit 131840
Received nack credit for flit 131377
Requeued flit 131377
12
8
Received nack credit for flit 131220
Requeued flit 131220
Received nack credit for flit 131549
Requeued flit 131549
1
Received nack credit for flit 132227
Requeued flit 132227
1
Received nack credit for flit 132498
Requeued flit 132498
2
6
4
Received nack credit for flit 132627
Requeued flit 132627
1
Received nack credit for flit 132439
Requeued flit 132439
Received nack credit for flit 132559
Requeued flit 132559
Received nack credit for flit 132836
Requeued flit 132836
6
Received nack credit for flit 132772
Requeued flit 132772
5
Received nack credit for flit 133213
Requeued flit 133213
5
2
Received nack credit for flit 133402
Requeued flit 133402
Received nack credit for flit 133735
Requeued flit 133735
1
1
Received nack credit for flit 134094
Requeued flit 134094
7
Received nack credit for flit 134195
Requeued flit 134195
2
Received nack credit for flit 133841
Requeued flit 133841
1
Received nack credit for flit 134304
Requeued flit 134304
Received nack credit for flit 134480
Requeued flit 134480
2
3
Received nack credit for flit 134526
Requeued flit 134526
1
2
3
Received nack credit for flit 134600
Requeued flit 134600
Received nack credit for flit 134721
Requeued flit 134721
Received nack credit for flit 134643
Requeued flit 134643
Received nack credit for flit 134788
Requeued flit 134788
2
5
Received nack credit for flit 134917
Requeued flit 134917
Received nack credit for flit 134658
Requeued flit 134658
1
5
1
Received nack credit for flit 134861
Requeued flit 134861
Received nack credit for flit 135273
Requeued flit 135273
Received nack credit for flit 135298
Requeued flit 135298
2
Received nack credit for flit 135730
Requeued flit 135730
1
Received nack credit for flit 135946
Requeued flit 135946
3
Received nack credit for flit 135906
Requeued flit 135906
6
1
Received nack credit for flit 135796
Requeued flit 135796
Received nack credit for flit 136215
Requeued flit 136215
7
3
Received nack credit for flit 136141
Requeued flit 136141
Received nack credit for flit 136624
Requeued flit 136624
2
Received nack credit for flit 137117
Requeued flit 137117
1
6
Received nack credit for flit 136961
Requeued flit 136961
Received nack credit for flit 137424
Requeued flit 137424
3
3
1
Received nack credit for flit 137652
Requeued flit 137652
3
9
Received nack credit for flit 137767
Requeued flit 137767
Received nack credit for flit 137936
Requeued flit 137936
Received nack credit for flit 137427
Requeued flit 137427
4
Received nack credit for flit 137839
Requeued flit 137839
Received nack credit for flit 137935
Requeued flit 137935
1
1
1
4
Received nack credit for flit 138671
Requeued flit 138671
Received nack credit for flit 138712
Requeued flit 138712
Received nack credit for flit 138742
Requeued flit 138742
4
Received nack credit for flit 138615
Requeued flit 138615
Received nack credit for flit 138688
Requeued flit 138688
3
5
4
2
Received nack credit for flit 138968
Requeued flit 138968
Received nack credit for flit 138992
Requeued flit 138992
Received nack credit for flit 139179
Requeued flit 139179
Received nack credit for flit 138881
Requeued flit 138881
1
Received nack credit for flit 139654
Requeued flit 139654
1
2
Received nack credit for flit 139888
Requeued flit 139888
Received nack credit for flit 139881
Requeued flit 139881
1
1
Received nack credit for flit 140156
Requeued flit 140156
Received nack credit for flit 140128
Requeued flit 140128
3
Received nack credit for flit 140295
Requeued flit 140295
4
Received nack credit for flit 140543
Requeued flit 140543
2
Received nack credit for flit 140755
Requeued flit 140755
1
1
Received nack credit for flit 141085
Requeued flit 141085
9
8
3
Received nack credit for flit 141169
Requeued flit 141169
5
Received nack credit for flit 140614
Requeued flit 140614
Received nack credit for flit 140735
Requeued flit 140735
Received nack credit for flit 141167
Requeued flit 141167
Received nack credit for flit 141069
Requeued flit 141069
4
Received nack credit for flit 141219
Requeued flit 141219
3
2
Received nack credit for flit 141713
Requeued flit 141713
Received nack credit for flit 141562
Requeued flit 141562
3
Received nack credit for flit 141865
Requeued flit 141865
6
Received nack credit for flit 142536
Requeued flit 142536
1
10
Received nack credit for flit 143167
Requeued flit 143167
11
Received nack credit for flit 142508
Requeued flit 142508
Received nack credit for flit 142622
Requeued flit 142622
3
Received nack credit for flit 143346
Requeued flit 143346
7
Received nack credit for flit 143283
Requeued flit 143283
10
Received nack credit for flit 144014
Requeued flit 144014
3
4
Received nack credit for flit 144916
Requeued flit 144916
Received nack credit for flit 144945
Requeued flit 144945
4
Received nack credit for flit 145116
Requeued flit 145116
6
4
Received nack credit for flit 145220
Requeued flit 145220
5
Received nack credit for flit 145522
Requeued flit 145522
1
Received nack credit for flit 145523
Requeued flit 145523
5
Received nack credit for flit 145910
Requeued flit 145910
Received nack credit for flit 145647
Requeued flit 145647
4
4
2
Received nack credit for flit 145938
Requeued flit 145938
Received nack credit for flit 145962
Requeued flit 145962
4
Received nack credit for flit 146154
Requeued flit 146154
Received nack credit for flit 146108
Requeued flit 146108
1
Received nack credit for flit 146640
Requeued flit 146640
1
10
Received nack credit for flit 146343
Requeued flit 146343
Received nack credit for flit 147062
Requeued flit 147062
6
Received nack credit for flit 146929
Requeued flit 146929
1
8
Received nack credit for flit 147513
Requeued flit 147513
Received nack credit for flit 147029
Requeued flit 147029
7
Received nack credit for flit 147265
Requeued flit 147265
4
5
Received nack credit for flit 147632
Requeued flit 147632
Received nack credit for flit 147521
Requeued flit 147521
1
Received nack credit for flit 148421
Requeued flit 148421
1
4
Received nack credit for flit 148676
Requeued flit 148676
3
Received nack credit for flit 148609
Requeued flit 148609
5
1
1
Received nack credit for flit 148773
Requeued flit 148773
Received nack credit for flit 148993
Requeued flit 148993
Received nack credit for flit 149015
Requeued flit 149015
Received nack credit for flit 148722
Requeued flit 148722
1
3
3
1
5
8
Received nack credit for flit 149253
Requeued flit 149253
Received nack credit for flit 149158
Requeued flit 149158
Received nack credit for flit 149290
Requeued flit 149290
Received nack credit for flit 149010
Requeued flit 149010
Received nack credit for flit 148816
Requeued flit 148816
2
Received nack credit for flit 149150
Requeued flit 149150
3
Received nack credit for flit 149437
Requeued flit 149437
Received nack credit for flit 149317
Requeued flit 149317
1
Received nack credit for flit 149806
Requeued flit 149806
1
1
Received nack credit for flit 150241
Requeued flit 150241
Received nack credit for flit 150351
Requeued flit 150351
5
1
Received nack credit for flit 150274
Requeued flit 150274
3
Received nack credit for flit 150641
Requeued flit 150641
Received nack credit for flit 150545
Requeued flit 150545
4
Received nack credit for flit 150635
Requeued flit 150635
2
1
Received nack credit for flit 150929
Requeued flit 150929
Received nack credit for flit 151025
Requeued flit 151025
8
1
Received nack credit for flit 150723
Requeued flit 150723
Received nack credit for flit 151236
Requeued flit 151236
1
Received nack credit for flit 151695
Requeued flit 151695
3
2
Received nack credit for flit 151662
Requeued flit 151662
Received nack credit for flit 151738
Requeued flit 151738
5
Received nack credit for flit 151576
Requeued flit 151576
3
Received nack credit for flit 152269
Requeued flit 152269
1
11
1
1
10
1
Received nack credit for flit 151965
Requeued flit 151965
Received nack credit for flit 152683
Requeued flit 152683
Received nack credit for flit 152761
Requeued flit 152761
Received nack credit for flit 152786
Requeued flit 152786
Received nack credit for flit 152150
Requeued flit 152150
Received nack credit for flit 152819
Requeued flit 152819
2
2
Received nack credit for flit 153281
Requeued flit 153281
Received nack credit for flit 153255
Requeued flit 153255
1
4
4
2
Received nack credit for flit 153570
Requeued flit 153570
1
5
Received nack credit for flit 153843
Requeued flit 153843
Received nack credit for flit 153667
Requeued flit 153667
Received nack credit for flit 153771
Requeued flit 153771
Received nack credit for flit 153727
Requeued flit 153727
6
3
Received nack credit for flit 153772
Requeued flit 153772
Received nack credit for flit 154124
Requeued flit 154124
3
Received nack credit for flit 154310
Requeued flit 154310
7
4
1
Received nack credit for flit 154144
Requeued flit 154144
11
Received nack credit for flit 154555
Requeued flit 154555
4
3
Received nack credit for flit 154819
Requeued flit 154819
Received nack credit for flit 154077
Requeued flit 154077
Received nack credit for flit 154710
Requeued flit 154710
Received nack credit for flit 154798
Requeued flit 154798
4
1
2
6
Received nack credit for flit 155601
Requeued flit 155601
Received nack credit for flit 155510
Requeued flit 155510
Received nack credit for flit 155249
Requeued flit 155249
Received nack credit for flit 155223
Requeued flit 155223
3
Received nack credit for flit 155942
Requeued flit 155942
4
Received nack credit for flit 155942
Requeued flit 155942
4
Received nack credit for flit 156494
Requeued flit 156494
3
1
Received nack credit for flit 156761
Requeued flit 156761
Received nack credit for flit 156955
Requeued flit 156955
3
1
Received nack credit for flit 157069
Requeued flit 157069
Received nack credit for flit 157247
Requeued flit 157247
1
4
Received nack credit for flit 157505
Requeued flit 157505
Received nack credit for flit 157715
Requeued flit 157715
3
Received nack credit for flit 158301
Requeued flit 158301
1
4
Received nack credit for flit 158717
Requeued flit 158717
3
Received nack credit for flit 158651
Requeued flit 158651
2
Received nack credit for flit 158783
Requeued flit 158783
Received nack credit for flit 158952
Requeued flit 158952
2
9
Received nack credit for flit 159258
Requeued flit 159258
Received nack credit for flit 158689
Requeued flit 158689
5
3
Received nack credit for flit 159426
Requeued flit 159426
Received nack credit for flit 159271
Requeued flit 159271
1
2
2
1
Received nack credit for flit 159777
Requeued flit 159777
Received nack credit for flit 159755
Requeued flit 159755
Received nack credit for flit 159801
Requeued flit 159801
Received nack credit for flit 159873
Requeued flit 159873
1
Received nack credit for flit 160627
Requeued flit 160627
4
Received nack credit for flit 160584
Requeued flit 160584
4
9
8
Received nack credit for flit 160684
Requeued flit 160684
6
8
1
Received nack credit for flit 160483
Requeued flit 160483
Received nack credit for flit 160722
Requeued flit 160722
Received nack credit for flit 160564
Requeued flit 160564
Received nack credit for flit 161139
Requeued flit 161139
3
1
Received nack credit for flit 161315
Requeued flit 161315
2
Received nack credit for flit 161612
Requeued flit 161612
1
Received nack credit for flit 161577
Requeued flit 161577
Received nack credit for flit 161720
Requeued flit 161720
1
Received nack credit for flit 162140
Requeued flit 162140
1
7
Received nack credit for flit 162341
Requeued flit 162341
Received nack credit for flit 161909
Requeued flit 161909
3
6
1
Received nack credit for flit 162533
Requeued flit 162533
5
Received nack credit for flit 162269
Requeued flit 162269
2
Received nack credit for flit 162804
Requeued flit 162804
Received nack credit for flit 162516
Requeued flit 162516
Received nack credit for flit 162756
Requeued flit 162756
7
1
Received nack credit for flit 162760
Requeued flit 162760
1
Received nack credit for flit 163378
Requeued flit 163378
Received nack credit for flit 163429
Requeued flit 163429
4
4
3
Received nack credit for flit 163534
Requeued flit 163534
Received nack credit for flit 163626
Requeued flit 163626
Received nack credit for flit 163625
Requeued flit 163625
4
8
1
Received nack credit for flit 163789
Requeued flit 163789
5
Received nack credit for flit 163582
Requeued flit 163582
Received nack credit for flit 164121
Requeued flit 164121
Received nack credit for flit 163897
Requeued flit 163897
2
Received nack credit for flit 164405
Requeued flit 164405
1
1
5
Received nack credit for flit 164836
Requeued flit 164836
Received nack credit for flit 164645
Requeued flit 164645
Received nack credit for flit 164762
Requeued flit 164762
1
Received nack credit for flit 165083
Requeued flit 165083
2
5
Received nack credit for flit 165393
Requeued flit 165393
Received nack credit for flit 165255
Requeued flit 165255
1
Received nack credit for flit 165638
Requeued flit 165638
1
8
Received nack credit for flit 165839
Requeued flit 165839
Received nack credit for flit 165436
Requeued flit 165436
7
2
3
Received nack credit for flit 166265
Requeued flit 166265
Received nack credit for flit 165927
Requeued flit 165927
Received nack credit for flit 166191
Requeued flit 166191
9
2
Received nack credit for flit 166333
Requeued flit 166333
1
Received nack credit for flit 166967
Requeued flit 166967
3
Received nack credit for flit 167091
Requeued flit 167091
Received nack credit for flit 167085
Requeued flit 167085
5
8
2
Received nack credit for flit 166978
Requeued flit 166978
Received nack credit for flit 167108
Requeued flit 167108
Received nack credit for flit 167487
Requeued flit 167487
7
Received nack credit for flit 167390
Requeued flit 167390
8
Received nack credit for flit 167442
Requeued flit 167442
2
3
1
Received nack credit for flit 168039
Requeued flit 168039
6
Received nack credit for flit 168034
Requeued flit 168034
Received nack credit for flit 168188
Requeued flit 168188
8
Received nack credit for flit 167918
Requeued flit 167918
1
Received nack credit for flit 167721
Requeued flit 167721
4
Received nack credit for flit 168593
Requeued flit 168593
Received nack credit for flit 168462
Requeued flit 168462
2
2
Received nack credit for flit 168870
Requeued flit 168870
Received nack credit for flit 168902
Requeued flit 168902
2
5
Received nack credit for flit 169125
Requeued flit 169125
2
6
Received nack credit for flit 169062
Requeued flit 169062
Received nack credit for flit 169325
Requeued flit 169325
1
Received nack credit for flit 169078
Requeued flit 169078
Received nack credit for flit 169556
Requeued flit 169556
3
5
3
Received nack credit for flit 169527
Requeued flit 169527
2
4
Received nack credit for flit 169503
Requeued flit 169503
Received nack credit for flit 169600
Requeued flit 169600
4
Received nack credit for flit 169765
Requeued flit 169765
Received nack credit for flit 169725
Requeued flit 169725
11
Received nack credit for flit 169671
Requeued flit 169671
Received nack credit for flit 169240
Requeued flit 169240
2
2
Received nack credit for flit 170339
Requeued flit 170339
Received nack credit for flit 170425
Requeued flit 170425
1
Received nack credit for flit 170811
Requeued flit 170811
5
Received nack credit for flit 171040
Requeued flit 171040
3
5
Received nack credit for flit 171298
Requeued flit 171298
Received nack credit for flit 171288
Requeued flit 171288
4
Received nack credit for flit 171727
Requeued flit 171727
2
3
Received nack credit for flit 172121
Requeued flit 172121
Received nack credit for flit 172078
Requeued flit 172078
5
2
Received nack credit for flit 172173
Requeued flit 172173
Received nack credit for flit 172566
Requeued flit 172566
1
1
Received nack credit for flit 172796
Requeued flit 172796
7
6
Received nack credit for flit 172881
Requeued flit 172881
Received nack credit for flit 172635
Requeued flit 172635
Received nack credit for flit 172574
Requeued flit 172574
9
1
Received nack credit for flit 172704
Requeued flit 172704
Received nack credit for flit 173351
Requeued flit 173351
6
3
Received nack credit for flit 173183
Requeued flit 173183
1
Received nack credit for flit 173439
Requeued flit 173439
Received nack credit for flit 173701
Requeued flit 173701
7
1
1
3
Received nack credit for flit 173475
Requeued flit 173475
3
Received nack credit for flit 173975
Requeued flit 173975
Received nack credit for flit 174101
Requeued flit 174101
7
1
Received nack credit for flit 174129
Requeued flit 174129
Received nack credit for flit 173995
Requeued flit 173995
Received nack credit for flit 173835
Requeued flit 173835
Received nack credit for flit 174229
Requeued flit 174229
3
3
Received nack credit for flit 174712
Requeued flit 174712
Received nack credit for flit 174756
Requeued flit 174756
4
9
Received nack credit for flit 175231
Requeued flit 175231
1
Received nack credit for flit 174859
Requeued flit 174859
Received nack credit for flit 175568
Requeued flit 175568
3
Received nack credit for flit 176124
Requeued flit 176124
2
3
3
2
Received nack credit for flit 176700
Requeued flit 176700
8
Received nack credit for flit 176659
Requeued flit 176659
Received nack credit for flit 176784
Requeued flit 176784
Received nack credit for flit 176853
Requeued flit 176853
Received nack credit for flit 176489
Requeued flit 176489
1
10
3
2
Received nack credit for flit 177321
Requeued flit 177321
Received nack credit for flit 176612
Requeued flit 176612
Received nack credit for flit 177236
Requeued flit 177236
Received nack credit for flit 177394
Requeued flit 177394
2
3
9
Received nack credit for flit 177716
Requeued flit 177716
Received nack credit for flit 177777
Requeued flit 177777
Received nack credit for flit 177258
Requeued flit 177258
4
8
Received nack credit for flit 178278
Requeued flit 178278
7
Received nack credit for flit 178112
Requeued flit 178112
7
Received nack credit for flit 178363
Requeued flit 178363
Received nack credit for flit 178217
Requeued flit 178217
4
3
6
2
Received nack credit for flit 179118
Requeued flit 179118
Received nack credit for flit 178900
Requeued flit 178900
4
Received nack credit for flit 178996
Requeued flit 178996
Received nack credit for flit 179230
Requeued flit 179230
Received nack credit for flit 179185
Requeued flit 179185
5
7
5
Received nack credit for flit 179300
Requeued flit 179300
1
Received nack credit for flit 179296
Requeued flit 179296
Received nack credit for flit 179230
Requeued flit 179230
2
Received nack credit for flit 179822
Requeued flit 179822
Received nack credit for flit 179895
Requeued flit 179895
1
Received nack credit for flit 180583
Requeued flit 180583
6
Received nack credit for flit 180361
Requeued flit 180361
1
1
Received nack credit for flit 180924
Requeued flit 180924
Received nack credit for flit 180947
Requeued flit 180947
2
1
Received nack credit for flit 181268
Requeued flit 181268
Received nack credit for flit 181191
Requeued flit 181191
6
3
1
Received nack credit for flit 181160
Requeued flit 181160
Received nack credit for flit 181582
Requeued flit 181582
Received nack credit for flit 181773
Requeued flit 181773
1
6
5
Received nack credit for flit 181683
Requeued flit 181683
4
Received nack credit for flit 181988
Requeued flit 181988
Received nack credit for flit 181747
Requeued flit 181747
Received nack credit for flit 181973
Requeued flit 181973
2
Received nack credit for flit 182502
Requeued flit 182502
1
1
Received nack credit for flit 182851
Requeued flit 182851
3
7
Received nack credit for flit 182932
Requeued flit 182932
9
Received nack credit for flit 182928
Requeued flit 182928
9
1
Received nack credit for flit 182661
Requeued flit 182661
Received nack credit for flit 182545
Requeued flit 182545
2
Received nack credit for flit 183225
Requeued flit 183225
6
Received nack credit for flit 183370
Requeued flit 183370
9
Received nack credit for flit 183178
Requeued flit 183178
Received nack credit for flit 182985
Requeued flit 182985
1
Received nack credit for flit 183852
Requeued flit 183852
2
Received nack credit for flit 183946
Requeued flit 183946
2
1
5
Received nack credit for flit 184224
Requeued flit 184224
Received nack credit for flit 183989
Requeued flit 183989
Received nack credit for flit 184144
Requeued flit 184144
1
Received nack credit for flit 184463
Requeued flit 184463
5
1
1
1
Received nack credit for flit 184614
Requeued flit 184614
Received nack credit for flit 184983
Requeued flit 184983
1
Received nack credit for flit 185056
Requeued flit 185056
Received nack credit for flit 185067
Requeued flit 185067
Received nack credit for flit 185130
Requeued flit 185130
2
Received nack credit for flit 185374
Requeued flit 185374
1
3
Received nack credit for flit 185706
Requeued flit 185706
1
Received nack credit for flit 185599
Requeued flit 185599
Received nack credit for flit 185849
Requeued flit 185849
1
Received nack credit for flit 186272
Requeued flit 186272
4
Received nack credit for flit 186208
Requeued flit 186208
1
1
Received nack credit for flit 186995
Requeued flit 186995
Received nack credit for flit 186931
Requeued flit 186931
5
Received nack credit for flit 187439
Requeued flit 187439
2
2
3
Received nack credit for flit 187958
Requeued flit 187958
3
2
1
Received nack credit for flit 187983
Requeued flit 187983
Received nack credit for flit 188024
Requeued flit 188024
Received nack credit for flit 188012
Requeued flit 188012
Received nack credit for flit 188235
Requeued flit 188235
Received nack credit for flit 188146
Requeued flit 188146
2
1
Received nack credit for flit 188335
Requeued flit 188335
4
Received nack credit for flit 188474
Requeued flit 188474
Received nack credit for flit 188275
Requeued flit 188275
5
1
Received nack credit for flit 188589
Requeued flit 188589
Received nack credit for flit 188882
Requeued flit 188882
1
5
1
1
Received nack credit for flit 189057
Requeued flit 189057
Received nack credit for flit 188851
Requeued flit 188851
6
Received nack credit for flit 189214
Requeued flit 189214
10
Received nack credit for flit 189203
Requeued flit 189203
Received nack credit for flit 188936
Requeued flit 188936
Received nack credit for flit 188649
Requeued flit 188649
4
2
2
Received nack credit for flit 189461
Requeued flit 189461
Received nack credit for flit 189630
Requeued flit 189630
Received nack credit for flit 189676
Requeued flit 189676
1
Received nack credit for flit 190010
Requeued flit 190010
7
3
2
Received nack credit for flit 189734
Requeued flit 189734
1
6
Received nack credit for flit 190065
Requeued flit 190065
8
5
1
Received nack credit for flit 190178
Requeued flit 190178
Received nack credit for flit 189922
Requeued flit 189922
Received nack credit for flit 190033
Requeued flit 190033
Received nack credit for flit 190303
Requeued flit 190303
Received nack credit for flit 189913
Requeued flit 189913
Received nack credit for flit 190384
Requeued flit 190384
4
1
Received nack credit for flit 190467
Requeued flit 190467
Received nack credit for flit 190828
Requeued flit 190828
1
1
Received nack credit for flit 191095
Requeued flit 191095
Received nack credit for flit 191128
Requeued flit 191128
4
2
Received nack credit for flit 191055
Requeued flit 191055
2
Received nack credit for flit 191292
Requeued flit 191292
Received nack credit for flit 191379
Requeued flit 191379
1
Received nack credit for flit 191806
Requeued flit 191806
1
7
Received nack credit for flit 191966
Requeued flit 191966
5
Received nack credit for flit 191575
Requeued flit 191575
1
Received nack credit for flit 191800
Requeued flit 191800
Received nack credit for flit 192189
Requeued flit 192189
5
Received nack credit for flit 192268
Requeued flit 192268
2
1
Received nack credit for flit 192687
Requeued flit 192687
Received nack credit for flit 192837
Requeued flit 192837
1
3
3
Received nack credit for flit 193124
Requeued flit 193124
2
Received nack credit for flit 193090
Requeued flit 193090
Received nack credit for flit 193104
Requeued flit 193104
Received nack credit for flit 193243
Requeued flit 193243
3
2
Received nack credit for flit 193555
Requeued flit 193555
Received nack credit for flit 193663
Requeued flit 193663
1
Received nack credit for flit 194330
Requeued flit 194330
7
4
Received nack credit for flit 194021
Requeued flit 194021
1
Received nack credit for flit 194357
Requeued flit 194357
Received nack credit for flit 194694
Requeued flit 194694
10
1
Received nack credit for flit 194329
Requeued flit 194329
Received nack credit for flit 195062
Requeued flit 195062
3
Received nack credit for flit 195099
Requeued flit 195099
1
4
Received nack credit for flit 195991
Requeued flit 195991
6
Received nack credit for flit 196140
Requeued flit 196140
Received nack credit for flit 195963
Requeued flit 195963
2
Received nack credit for flit 196699
Requeued flit 196699
5
2
Received nack credit for flit 196577
Requeued flit 196577
Received nack credit for flit 196896
Requeued flit 196896
1
4
Received nack credit for flit 197262
Requeued flit 197262
4
1
4
5
Received nack credit for flit 197022
Requeued flit 197022
Received nack credit for flit 197229
Requeued flit 197229
2
Received nack credit for flit 197489
Requeued flit 197489
Received nack credit for flit 197305
Requeued flit 197305
Received nack credit for flit 197544
Requeued flit 197544
6
Received nack credit for flit 197242
Requeued flit 197242
7
8
1
Received nack credit for flit 197453
Requeued flit 197453
1
Received nack credit for flit 197440
Requeued flit 197440
Received nack credit for flit 197854
Requeued flit 197854
Received nack credit for flit 197930
Requeued flit 197930
Received nack credit for flit 197397
Requeued flit 197397
3
2
Received nack credit for flit 198417
Requeued flit 198417
2
Received nack credit for flit 198535
Requeued flit 198535
Received nack credit for flit 198642
Requeued flit 198642
3
9
Received nack credit for flit 198676
Requeued flit 198676
Received nack credit for flit 198268
Requeued flit 198268
1
6
1
Received nack credit for flit 199133
Requeued flit 199133
Received nack credit for flit 198791
Requeued flit 198791
Received nack credit for flit 199239
Requeued flit 199239
3
1
Received nack credit for flit 199228
Requeued flit 199228
7
Received nack credit for flit 199467
Requeued flit 199467
Received nack credit for flit 199120
Requeued flit 199120
4
7
Received nack credit for flit 199504
Requeued flit 199504
Received nack credit for flit 199424
Requeued flit 199424
1
7
Received nack credit for flit 200141
Requeued flit 200141
6
Received nack credit for flit 199791
Requeued flit 199791
4
1
3
Received nack credit for flit 200188
Requeued flit 200188
Received nack credit for flit 200471
Requeued flit 200471
Received nack credit for flit 200605
Requeued flit 200605
Received nack credit for flit 200742
Requeued flit 200742
6
8
3
Received nack credit for flit 200516
Requeued flit 200516
Received nack credit for flit 200312
Requeued flit 200312
7
Received nack credit for flit 200881
Requeued flit 200881
2
Received nack credit for flit 200662
Requeued flit 200662
1
1
Received nack credit for flit 201167
Requeued flit 201167
1
2
Received nack credit for flit 201243
Requeued flit 201243
Received nack credit for flit 201351
Requeued flit 201351
Received nack credit for flit 201287
Requeued flit 201287
4
Received nack credit for flit 201273
Requeued flit 201273
7
6
Received nack credit for flit 201311
Requeued flit 201311
Received nack credit for flit 201232
Requeued flit 201232
Received nack credit for flit 201319
Requeued flit 201319
1
1
3
Received nack credit for flit 201859
Requeued flit 201859
4
Received nack credit for flit 201884
Requeued flit 201884
Received nack credit for flit 201780
Requeued flit 201780
Received nack credit for flit 201816
Requeued flit 201816
6
Received nack credit for flit 201838
Requeued flit 201838
1
Received nack credit for flit 202425
Requeued flit 202425
1
Received nack credit for flit 202659
Requeued flit 202659
1
1
9
Received nack credit for flit 202785
Requeued flit 202785
Received nack credit for flit 202853
Requeued flit 202853
5
Received nack credit for flit 202325
Requeued flit 202325
Received nack credit for flit 202758
Requeued flit 202758
2
2
Received nack credit for flit 203218
Requeued flit 203218
Received nack credit for flit 203275
Requeued flit 203275
5
2
Received nack credit for flit 203164
Requeued flit 203164
Received nack credit for flit 203462
Requeued flit 203462
8
1
Received nack credit for flit 203258
Requeued flit 203258
Received nack credit for flit 203815
Requeued flit 203815
1
1
Received nack credit for flit 204191
Requeued flit 204191
4
1
7
2
Received nack credit for flit 204137
Requeued flit 204137
Received nack credit for flit 204380
Requeued flit 204380
1
Received nack credit for flit 204347
Requeued flit 204347
Received nack credit for flit 204002
Requeued flit 204002
Received nack credit for flit 204546
Requeued flit 204546
1
Received nack credit for flit 204945
Requeued flit 204945
8
Received nack credit for flit 204778
Requeued flit 204778
2
Received nack credit for flit 205562
Requeued flit 205562
1
8
Received nack credit for flit 205429
Requeued flit 205429
Received nack credit for flit 205891
Requeued flit 205891
8
4
1
Received nack credit for flit 205969
Requeued flit 205969
Received nack credit for flit 205703
Requeued flit 205703
Received nack credit for flit 206307
Requeued flit 206307
8
Received nack credit for flit 206049
Requeued flit 206049
1
2
7
Received nack credit for flit 206762
Requeued flit 206762
Received nack credit for flit 206716
Requeued flit 206716
6
1
Received nack credit for flit 206494
Requeued flit 206494
1
1
8
3
Received nack credit for flit 206687
Requeued flit 206687
Received nack credit for flit 207085
Requeued flit 207085
Received nack credit for flit 207116
Requeued flit 207116
Received nack credit for flit 207146
Requeued flit 207146
Received nack credit for flit 207061
[...]
4
Received nack credit for flit 1296763
Requeued flit 1296763
1
Received nack credit for flit 1297204
Requeued flit 1297204
1
1
1
2
1
Received nack credit for flit 1297705
Requeued flit 1297705
1
Received nack credit for flit 1297726
Requeued flit 1297726
Received nack credit for flit 1297819
Requeued flit 1297819
Received nack credit for flit 1297804
Requeued flit 1297804
Received nack credit for flit 1297778
Requeued flit 1297778
5
1
1
Received nack credit for flit 1297941
Requeued flit 1297941
Received nack credit for flit 1298377
Requeued flit 1298377
Received nack credit for flit 1298361
Requeued flit 1298361
3
Received nack credit for flit 1298400
Requeued flit 1298400
2
Received nack credit for flit 1298618
Requeued flit 1298618
5
Received nack credit for flit 1298745
Requeued flit 1298745
1
12
4
Received nack credit for flit 1299320
Requeued flit 1299320
1
Received nack credit for flit 1298567
Requeued flit 1298567
Received nack credit for flit 1299182
Requeued flit 1299182
Received nack credit for flit 1299533
Requeued flit 1299533
1
Received nack credit for flit 1299978
Requeued flit 1299978
1
Received nack credit for flit 1300528
Requeued flit 1300528
2
2
Received nack credit for flit 1300726
Requeued flit 1300726
Received nack credit for flit 1300820
Requeued flit 1300820
5
Received nack credit for flit 1300782
Requeued flit 1300782
1
7
Received nack credit for flit 1301295
Requeued flit 1301295
Received nack credit for flit 1300909
Requeued flit 1300909
1
Received nack credit for flit 1301810
Requeued flit 1301810
3
4
Received nack credit for flit 1301961
Requeued flit 1301961
Received nack credit for flit 1301940
Requeued flit 1301940
2
9
Received nack credit for flit 1302783
Requeued flit 1302783
Received nack credit for flit 1302349
Requeued flit 1302349
1
1
Received nack credit for flit 1303105
Requeued flit 1303105
Received nack credit for flit 1303128
Requeued flit 1303128
2
Received nack credit for flit 1303358
Requeued flit 1303358
5
8
5
Received nack credit for flit 1303540
Requeued flit 1303540
Received nack credit for flit 1303685
Requeued flit 1303685
Received nack credit for flit 1303751
Requeued flit 1303751
2
8
Received nack credit for flit 1304082
Requeued flit 1304082
7
Received nack credit for flit 1303693
Requeued flit 1303693
Received nack credit for flit 1303888
Requeued flit 1303888
7
Received nack credit for flit 1304053
Requeued flit 1304053
2
Received nack credit for flit 1304667
Requeued flit 1304667
2
1
Received nack credit for flit 1304790
Requeued flit 1304790
2
5
3
Received nack credit for flit 1305038
Requeued flit 1305038
Received nack credit for flit 1304992
Requeued flit 1304992
Received nack credit for flit 1304973
Requeued flit 1304973
Received nack credit for flit 1304900
Requeued flit 1304900
1
7
Received nack credit for flit 1305303
Requeued flit 1305303
6
Received nack credit for flit 1305028
Requeued flit 1305028
6
Received nack credit for flit 1305166
Requeued flit 1305166
4
Received nack credit for flit 1305164
Requeued flit 1305164
1
1
Received nack credit for flit 1305570
Requeued flit 1305570
Received nack credit for flit 1305742
Requeued flit 1305742
2
4
Received nack credit for flit 1305812
Requeued flit 1305812
Received nack credit for flit 1305846
Requeued flit 1305846
Received nack credit for flit 1305692
Requeued flit 1305692
7
3
2
Received nack credit for flit 1306046
Requeued flit 1306046
5
Received nack credit for flit 1306461
Requeued flit 1306461
Received nack credit for flit 1306534
Requeued flit 1306534
1
Received nack credit for flit 1306421
Requeued flit 1306421
Received nack credit for flit 1306739
Requeued flit 1306739
3
3
Received nack credit for flit 1306972
Requeued flit 1306972
Received nack credit for flit 1307098
Requeued flit 1307098
1
Received nack credit for flit 1307331
Requeued flit 1307331
5
Received nack credit for flit 1307204
Requeued flit 1307204
3
4
4
Received nack credit for flit 1307634
Requeued flit 1307634
Received nack credit for flit 1307548
Requeued flit 1307548
Received nack credit for flit 1307621
Requeued flit 1307621
8
1
Received nack credit for flit 1307586
Requeued flit 1307586
2
Received nack credit for flit 1308150
Requeued flit 1308150
Received nack credit for flit 1308235
Requeued flit 1308235
1
1
3
5
Received nack credit for flit 1308493
Requeued flit 1308493
Received nack credit for flit 1308497
Requeued flit 1308497
Received nack credit for flit 1308390
Requeued flit 1308390
Received nack credit for flit 1308259
Requeued flit 1308259
5
Received nack credit for flit 1308497
Requeued flit 1308497
1
3
3
1
Received nack credit for flit 1309264
Requeued flit 1309264
Received nack credit for flit 1309138
Requeued flit 1309138
Received nack credit for flit 1309378
Requeued flit 1309378
Received nack credit for flit 1309214
Requeued flit 1309214
2
2
Received nack credit for flit 1309506
Requeued flit 1309506
3
Received nack credit for flit 1309530
Requeued flit 1309530
8
Received nack credit for flit 1309619
Requeued flit 1309619
5
Received nack credit for flit 1309415
Requeued flit 1309415
Received nack credit for flit 1309748
Requeued flit 1309748
1
Received nack credit for flit 1310693
Requeued flit 1310693
3
1
Received nack credit for flit 1310676
Requeued flit 1310676
Received nack credit for flit 1310846
Requeued flit 1310846
4
5
Received nack credit for flit 1310746
Requeued flit 1310746
Received nack credit for flit 1310658
Requeued flit 1310658
7
Received nack credit for flit 1310720
Requeued flit 1310720
6
3
1
Received nack credit for flit 1310883
Requeued flit 1310883
4
Received nack credit for flit 1311191
Requeued flit 1311191
3
Received nack credit for flit 1311367
Requeued flit 1311367
Received nack credit for flit 1311318
Requeued flit 1311318
Received nack credit for flit 1311261
Requeued flit 1311261
1
4
Received nack credit for flit 1311986
Requeued flit 1311986
Received nack credit for flit 1311938
Requeued flit 1311938
2
1
1
Received nack credit for flit 1312189
Requeued flit 1312189
Received nack credit for flit 1312402
Requeued flit 1312402
Received nack credit for flit 1312412
Requeued flit 1312412
2
5
1
1
Received nack credit for flit 1312593
Requeued flit 1312593
1
Received nack credit for flit 1312768
Requeued flit 1312768
Received nack credit for flit 1312901
Requeued flit 1312901
Received nack credit for flit 1312899
Requeued flit 1312899
Received nack credit for flit 1312991
Requeued flit 1312991
12
Received nack credit for flit 1312712
Requeued flit 1312712
1
Received nack credit for flit 1314308
Requeued flit 1314308
1
9
Received nack credit for flit 1314440
Requeued flit 1314440
7
Received nack credit for flit 1313869
Requeued flit 1313869
5
Received nack credit for flit 1313950
Requeued flit 1313950
3
Received nack credit for flit 1314395
Requeued flit 1314395
Received nack credit for flit 1314573
Requeued flit 1314573
1
3
Received nack credit for flit 1314959
Requeued flit 1314959
Received nack credit for flit 1314885
Requeued flit 1314885
2
2
3
2
Received nack credit for flit 1315212
Requeued flit 1315212
Received nack credit for flit 1315211
Requeued flit 1315211
Received nack credit for flit 1315466
Requeued flit 1315466
4
1
Received nack credit for flit 1315497
Requeued flit 1315497
Received nack credit for flit 1315845
Requeued flit 1315845
8
Received nack credit for flit 1315823
Requeued flit 1315823
1
4
3
Received nack credit for flit 1316722
Requeued flit 1316722
Received nack credit for flit 1316537
Requeued flit 1316537
Received nack credit for flit 1316691
Requeued flit 1316691
5
4
Received nack credit for flit 1316756
Requeued flit 1316756
Received nack credit for flit 1316820
Requeued flit 1316820
4
Received nack credit for flit 1317128
Requeued flit 1317128
5
Received nack credit for flit 1317224
Requeued flit 1317224
3
1
4
Received nack credit for flit 1318124
Requeued flit 1318124
Received nack credit for flit 1317991
Requeued flit 1317991
Received nack credit for flit 1318011
Requeued flit 1318011
2
Received nack credit for flit 1318240
Requeued flit 1318240
2
Received nack credit for flit 1318412
Requeued flit 1318412
1
9
Received nack credit for flit 1318813
Requeued flit 1318813
Received nack credit for flit 1318366
Requeued flit 1318366
1
5
Received nack credit for flit 1319055
Requeued flit 1319055
Received nack credit for flit 1318820
Requeued flit 1318820
1
2
Received nack credit for flit 1319791
Requeued flit 1319791
Received nack credit for flit 1319750
Requeued flit 1319750
1
4
2
Received nack credit for flit 1319796
Requeued flit 1319796
Received nack credit for flit 1319977
Requeued flit 1319977
Received nack credit for flit 1320011
Requeued flit 1320011
8
Received nack credit for flit 1319802
Requeued flit 1319802
2
7
Received nack credit for flit 1320115
Requeued flit 1320115
Received nack credit for flit 1320485
Requeued flit 1320485
4
5
Received nack credit for flit 1321124
Requeued flit 1321124
4
Received nack credit for flit 1321102
Requeued flit 1321102
Received nack credit for flit 1321291
Requeued flit 1321291
1
4
Received nack credit for flit 1321470
Requeued flit 1321470
Received nack credit for flit 1321611
Requeued flit 1321611
1
Received nack credit for flit 1321894
Requeued flit 1321894
10
Received nack credit for flit 1321567
Requeued flit 1321567
2
2
Received nack credit for flit 1322442
Requeued flit 1322442
1
Received nack credit for flit 1322528
Requeued flit 1322528
1
Received nack credit for flit 1322712
Requeued flit 1322712
Received nack credit for flit 1322785
Requeued flit 1322785
2
2
Received nack credit for flit 1323041
Requeued flit 1323041
Received nack credit for flit 1323030
Requeued flit 1323030
4
9
Received nack credit for flit 1323020
Requeued flit 1323020
Received nack credit for flit 1322784
Requeued flit 1322784
4
Received nack credit for flit 1323191
Requeued flit 1323191
2
Received nack credit for flit 1323633
Requeued flit 1323633
1
2
Received nack credit for flit 1324125
Requeued flit 1324125
3
Received nack credit for flit 1324110
Requeued flit 1324110
Received nack credit for flit 1324149
Requeued flit 1324149
10
Received nack credit for flit 1324020
Requeued flit 1324020
4
Received nack credit for flit 1325058
Requeued flit 1325058
1
3
Received nack credit for flit 1325437
Requeued flit 1325437
1
Received nack credit for flit 1325320
Requeued flit 1325320
1
1
Received nack credit for flit 1325617
Requeued flit 1325617
Received nack credit for flit 1325731
Requeued flit 1325731
Received nack credit for flit 1325738
Requeued flit 1325738
1
8
Received nack credit for flit 1325682
Requeued flit 1325682
Received nack credit for flit 1326115
Requeued flit 1326115
7
Received nack credit for flit 1325993
Requeued flit 1325993
2
Received nack credit for flit 1326765
Requeued flit 1326765
3
1
2
Received nack credit for flit 1326850
Requeued flit 1326850
Received nack credit for flit 1327051
Requeued flit 1327051
Received nack credit for flit 1326934
Requeued flit 1326934
2
Received nack credit for flit 1327576
Requeued flit 1327576
2
5
4
Received nack credit for flit 1327838
Requeued flit 1327838
5
Received nack credit for flit 1327758
Requeued flit 1327758
2
Received nack credit for flit 1327794
Requeued flit 1327794
Received nack credit for flit 1328127
Requeued flit 1328127
Received nack credit for flit 1327823
Requeued flit 1327823
4
Received nack credit for flit 1328249
Requeued flit 1328249
1
Received nack credit for flit 1328716
Requeued flit 1328716
1
Received nack credit for flit 1328949
Requeued flit 1328949
1
Received nack credit for flit 1329077
Requeued flit 1329077
7
1
Received nack credit for flit 1329047
Requeued flit 1329047
7
Received nack credit for flit 1329476
Requeued flit 1329476
Received nack credit for flit 1328989
Requeued flit 1328989
1
1
4
Received nack credit for flit 1329753
Requeued flit 1329753
Received nack credit for flit 1329884
Requeued flit 1329884
Received nack credit for flit 1329705
Requeued flit 1329705
1
6
Received nack credit for flit 1330307
Requeued flit 1330307
Received nack credit for flit 1329998
Requeued flit 1329998
4
Received nack credit for flit 1330275
Requeued flit 1330275
7
1
1
Received nack credit for flit 1330218
Requeued flit 1330218
Received nack credit for flit 1330726
Requeued flit 1330726
1
Received nack credit for flit 1330797
Requeued flit 1330797
7
Received nack credit for flit 1330869
Requeued flit 1330869
Received nack credit for flit 1330473
Requeued flit 1330473
1
Received nack credit for flit 1331204
Requeued flit 1331204
1
Received nack credit for flit 1331385
Requeued flit 1331385
2
6
Received nack credit for flit 1331602
Requeued flit 1331602
Received nack credit for flit 1331365
Requeued flit 1331365
5
4
Received nack credit for flit 1331911
Requeued flit 1331911
Received nack credit for flit 1332013
Requeued flit 1332013
4
Received nack credit for flit 1332311
Requeued flit 1332311
8
Received nack credit for flit 1332127
Requeued flit 1332127
8
3
Received nack credit for flit 1332478
Requeued flit 1332478
Received nack credit for flit 1332997
Requeued flit 1332997
4
Received nack credit for flit 1333647
Requeued flit 1333647
2
1
1
4
Received nack credit for flit 1334112
Requeued flit 1334112
Received nack credit for flit 1334028
Requeued flit 1334028
Received nack credit for flit 1334221
Requeued flit 1334221
Received nack credit for flit 1334004
Requeued flit 1334004
3
8
Received nack credit for flit 1334286
Requeued flit 1334286
4
Received nack credit for flit 1334026
Requeued flit 1334026
6
2
Received nack credit for flit 1334382
Requeued flit 1334382
Received nack credit for flit 1334258
Requeued flit 1334258
3
Received nack credit for flit 1334625
Requeued flit 1334625
3
Received nack credit for flit 1334678
Requeued flit 1334678
3
Received nack credit for flit 1334880
Requeued flit 1334880
2
7
2
Received nack credit for flit 1334942
Requeued flit 1334942
3
Received nack credit for flit 1335126
Requeued flit 1335126
Received nack credit for flit 1335120
Requeued flit 1335120
Received nack credit for flit 1334757
Requeued flit 1334757
4
1
Received nack credit for flit 1335177
Requeued flit 1335177
3
Received nack credit for flit 1335105
Requeued flit 1335105
Received nack credit for flit 1335380
Requeued flit 1335380
Received nack credit for flit 1335196
Requeued flit 1335196
3
2
Received nack credit for flit 1335557
Requeued flit 1335557
Received nack credit for flit 1335766
Requeued flit 1335766
1
8
6
Received nack credit for flit 1336052
Requeued flit 1336052
Received nack credit for flit 1335663
Requeued flit 1335663
5
Received nack credit for flit 1335803
Requeued flit 1335803
Received nack credit for flit 1336002
Requeued flit 1336002
2
2
Received nack credit for flit 1336459
Requeued flit 1336459
1
Received nack credit for flit 1336532
Requeued flit 1336532
Received nack credit for flit 1336671
Requeued flit 1336671
8
1
Received nack credit for flit 1336443
Requeued flit 1336443
Received nack credit for flit 1337041
Requeued flit 1337041
4
1
Received nack credit for flit 1337870
Requeued flit 1337870
Received nack credit for flit 1338319
Requeued flit 1338319
3
3
Received nack credit for flit 1338443
Requeued flit 1338443
Received nack credit for flit 1338511
Requeued flit 1338511
3
1
Received nack credit for flit 1339046
Requeued flit 1339046
Received nack credit for flit 1339217
Requeued flit 1339217
1
3
Received nack credit for flit 1339499
Requeued flit 1339499
Received nack credit for flit 1339443
Requeued flit 1339443
8
Received nack credit for flit 1339224
Requeued flit 1339224
1
Received nack credit for flit 1339919
Requeued flit 1339919
3
Received nack credit for flit 1339913
Requeued flit 1339913
1
1
Received nack credit for flit 1340242
Requeued flit 1340242
2
Received nack credit for flit 1340351
Requeued flit 1340351
Received nack credit for flit 1340380
Requeued flit 1340380
6
Received nack credit for flit 1340477
Requeued flit 1340477
2
1
Received nack credit for flit 1340926
Requeued flit 1340926
Received nack credit for flit 1341000
Requeued flit 1341000
4
4
Received nack credit for flit 1341091
Requeued flit 1341091
Received nack credit for flit 1341156
Requeued flit 1341156
5
Received nack credit for flit 1341699
Requeued flit 1341699
1
3
Received nack credit for flit 1342103
Requeued flit 1342103
1
Received nack credit for flit 1342064
Requeued flit 1342064
Received nack credit for flit 1342309
Requeued flit 1342309
4
2
Received nack credit for flit 1342219
Requeued flit 1342219
Received nack credit for flit 1342474
Requeued flit 1342474
4
4
Received nack credit for flit 1342680
Requeued flit 1342680
Received nack credit for flit 1342720
Requeued flit 1342720
1
Received nack credit for flit 1343316
Requeued flit 1343316
5
2
Received nack credit for flit 1343287
Requeued flit 1343287
Received nack credit for flit 1343618
Requeued flit 1343618
1
2
Received nack credit for flit 1343878
Requeued flit 1343878
4
1
1
Received nack credit for flit 1343788
Requeued flit 1343788
Received nack credit for flit 1344019
Requeued flit 1344019
Received nack credit for flit 1343913
Requeued flit 1343913
1
Received nack credit for flit 1344071
Requeued flit 1344071
8
7
Received nack credit for flit 1344247
Requeued flit 1344247
Received nack credit for flit 1343886
Requeued flit 1343886
Received nack credit for flit 1343744
Requeued flit 1343744
7
Class 0:
Packet latency average = 22.8962
	minimum = 5
	maximum = 65
Network latency average = 22.8962
	minimum = 5
	maximum = 65
Slowest packet = 937187
Flit latency average = 22.8995
	minimum = 5
	maximum = 65
Slowest flit = 937187
Fragmentation average = 0
	minimum = 0
	maximum = 0
Injected packet rate average = 0.35049
	minimum = 0.3435 (at node 19)
	maximum = 0.3577 (at node 49)
Accepted packet rate average = 0.35052
	minimum = 0.342467 (at node 14)
	maximum = 0.3583 (at node 31)
Injected flit rate average = 0.35049
	minimum = 0.3435 (at node 19)
	maximum = 0.3577 (at node 49)
Accepted flit rate average= 0.35052
	minimum = 0.342467 (at node 14)
	maximum = 0.3583 (at node 31)
Injected packet length average = 1
Accepted packet length average = 1
Total in-flight flits = 491 (491 measured)
latency change    = 0.000310338
throughput change = 0.000271917
Draining all recorded packets ...
6
Received nack credit for flit 1344095
Requeued flit 1344095
Received nack credit for flit 1344138
Requeued flit 1344138
3
1
Received nack credit for flit 1344755
Requeued flit 1344755
Received nack credit for flit 1345031
Requeued flit 1345031
2
1
Received nack credit for flit 1345281
Requeued flit 1345281
Received nack credit for flit 1345487
Requeued flit 1345487
1
Draining remaining packets ...
4
5
Received nack credit for flit 1345615
Requeued flit 1345615
Received nack credit for flit 1345488
Requeued flit 1345488
Received nack credit for flit 1345537
Requeued flit 1345537
12
Received nack credit for flit 1345584
Requeued flit 1345584
Time taken is 60095 cycles
====== Overall Traffic Statistics ======
====== Traffic class 0 ======
Packet latency average = 22.8995 (1 samples)
	minimum = 5 (1 samples)
	maximum = 65 (1 samples)
Network latency average = 22.8995 (1 samples)
	minimum = 5 (1 samples)
	maximum = 65 (1 samples)
Flit latency average = 22.9027 (1 samples)
	minimum = 5 (1 samples)
	maximum = 65 (1 samples)
Fragmentation average = 0 (1 samples)
	minimum = 0 (1 samples)
	maximum = 0 (1 samples)
Injected packet rate average = 0.35049 (1 samples)
	minimum = 0.3435 (1 samples)
	maximum = 0.3577 (1 samples)
Accepted packet rate average = 0.35052 (1 samples)
	minimum = 0.342467 (1 samples)
	maximum = 0.3583 (1 samples)
Injected flit rate average = 0.35049 (1 samples)
	minimum = 0.3435 (1 samples)
	maximum = 0.3577 (1 samples)
Accepted flit rate average = 0.35052 (1 samples)
	minimum = 0.342467 (1 samples)
	maximum = 0.3583 (1 samples)
Injected packet size average = 1 (1 samples)
Accepted packet size average = 1 (1 samples)
Hops average = 6.25662 (1 samples)
Total run time 108.755
