BEGIN Configuration File: examples/ecc_mesh88_config_1_1.000_packet_4
// $Id$

// Copyright (c) 2007-2015, Trustees of The Leland Stanford Junior University
// All rights reserved.
//
// Redistribution and use in source and binary forms, with or without
// modification, are permitted provided that the following conditions are met:
//
// Redistributions of source code must retain the above copyright notice, this
// list of conditions and the following disclaimer.
// Redistributions in binary form must reproduce the above copyright notice,
// this list of conditions and the following disclaimer in the documentation
// and/or other materials provided with the distribution.
//
// THIS SOFTWARE IS PROVIDED BY THE COPYRIGHT HOLDERS AND CONTRIBUTORS "AS IS"
// AND ANY EXPRESS OR IMPLIED WARRANTIES, INCLUDING, BUT NOT LIMITED TO, THE
// IMPLIED WARRANTIES OF MERCHANTABILITY AND FITNESS FOR A PARTICULAR PURPOSE
// ARE DISCLAIMED. IN NO EVENT SHALL THE COPYRIGHT OWNER OR CONTRIBUTORS BE
// LIABLE FOR ANY DIRECT, INDIRECT, INCIDENTAL, SPECIAL, EXEMPLARY, OR
// CONSEQUENTIAL DAMAGES (INCLUDING, BUT NOT LIMITED TO, PROCUREMENT OF
// SUBSTITUTE GOODS OR SERVICES; LOSS OF USE, DATA, OR PROFITS; OR BUSINESS
// INTERRUPTION) HOWEVER CAUSED AND ON ANY THEORY OF LIABILITY, WHETHER IN
// CONTRACT, STRICT LIABILITY, OR TORT (INCLUDING NEGLIGENCE OR OTHERWISE)
// ARISING IN ANY WAY OUT OF THE USE OF THIS SOFTWARE, EVEN IF ADVISED OF THE
// POSSIBILITY OF SUCH DAMAGE.

// Dragonfly
//




vc_buf_size = 256;


wait_for_tail_credit = 0;

//
// Router architecture
//
vc_allocator = separable_input_first; 
sw_allocator = separable_input_first;
alloc_iters  = 1;

credit_delay   = 2;
routing_delay  = 0;
vc_alloc_delay = 1;
sw_alloc_delay = 1;
st_final_delay = 1;

input_speedup     = 1;
output_speedup    = 1;
internal_speedup  = 2.0;


warmup_periods = 3;
sim_count          = 1;

sample_period  = 10000;  


routing_function = dor;
num_vcs     = 2;

priority = none;
traffic       = uniform; 

injection_rate = 1.0;
packet_size = 1;
injection_rate_uses_flits = 1;

topology = mesh;

k  = 8;
n  = 2;

fer = 4;
ecc = link;

watch_out=-;
//watch_file = watch.txt;

ecc = packet;

stats_out = examples/ecc_mesh88_config_1_1.000_packet_4.m;

END Configuration File: examples/ecc_mesh88_config_1_1.000_packet_4
Additional hops: 8
Set signal latency stall time: 16
Reenqueueing errored packet 125 at time 47
Additional hops: 12
Set signal latency stall time: 8
Additional hops: 21
Set signal latency stall time: 18
Reenqueueing errored packet 1762 at time 74
Reenqueueing errored packet 992 at time 89
Additional hops: 28
Set signal latency stall time: 14
Reenqueueing errored packet 1392 at time 104
Additional hops: 34
Set signal latency stall time: 12
Additional hops: 37
Set signal latency stall time: 6
Reenqueueing errored packet 3376 at time 179
Reenqueueing errored packet 10613 at time 183
Additional hops: 44
Set signal latency stall time: 14
Reenqueueing errored packet 5194 at time 225
Additional hops: 46
Set signal latency stall time: 4
Reenqueueing errored packet 18558 at time 304
Additional hops: 53
Set signal latency stall time: 14
Reenqueueing errored packet 6652 at time 321
Additional hops: 55
Set signal latency stall time: 4
Reenqueueing errored packet 21698 at time 354
Additional hops: 64
Set signal latency stall time: 18
Additional hops: 70
Set signal latency stall time: 12
Reenqueueing errored packet 11822 at time 373
Reenqueueing errored packet 7045 at time 383
Additional hops: 73
Set signal latency stall time: 6
Reenqueueing errored packet 25446 at time 416
Additional hops: 79
Set signal latency stall time: 12
Reenqueueing errored packet 14500 at time 468
Additional hops: 84
Set signal latency stall time: 10
Additional hops: 89
Set signal latency stall time: 10
Reenqueueing errored packet 27281 at time 528
Reenqueueing errored packet 21634 at time 533
Additional hops: 92
Set signal latency stall time: 6
Reenqueueing errored packet 39222 at time 633
Additional hops: 96
Set signal latency stall time: 8
Reenqueueing errored packet 18137 at time 645
Additional hops: 106
Set signal latency stall time: 20
Reenqueueing errored packet 14745 at time 855
Additional hops: 112
Set signal latency stall time: 12
Additional hops: 118
Set signal latency stall time: 12
Additional hops: 125
Set signal latency stall time: 14
Reenqueueing errored packet 50254 at time 982
Reenqueueing errored packet 22838 at time 990
Reenqueueing errored packet 25201 at time 992
Additional hops: 135
Set signal latency stall time: 20
Additional hops: 142
Set signal latency stall time: 14
Additional hops: 150
Set signal latency stall time: 16
Additional hops: 156
Set signal latency stall time: 12
Reenqueueing errored packet 34403 at time 1017
Reenqueueing errored packet 19305 at time 1019
Reenqueueing errored packet 18159 at time 1026
Reenqueueing errored packet 53417 at time 1029
Additional hops: 162
Set signal latency stall time: 12
Reenqueueing errored packet 37479 at time 1068
Additional hops: 164
Set signal latency stall time: 4
Additional hops: 170
Set signal latency stall time: 12
Reenqueueing errored packet 68325 at time 1080
Reenqueueing errored packet 36027 at time 1090
Additional hops: 172
Set signal latency stall time: 4
Reenqueueing errored packet 58434 at time 1101
Additional hops: 177
Set signal latency stall time: 10
Reenqueueing errored packet 22429 at time 1129
Additional hops: 186
Set signal latency stall time: 18
Reenqueueing errored packet 33260 at time 1212
Additional hops: 192
Set signal latency stall time: 12
Reenqueueing errored packet 80133 at time 1328
Additional hops: 202
Set signal latency stall time: 20
Reenqueueing errored packet 34296 at time 1433
Additional hops: 207
Set signal latency stall time: 10
Additional hops: 214
Set signal latency stall time: 14
Reenqueueing errored packet 40829 at time 1487
Reenqueueing errored packet 42248 at time 1492
Additional hops: 222
Set signal latency stall time: 16
Reenqueueing errored packet 39248 at time 1562
Additional hops: 233
Set signal latency stall time: 22
Additional hops: 241
Set signal latency stall time: 16
Reenqueueing errored packet 21166 at time 1681
Reenqueueing errored packet 67938 at time 1685
Additional hops: 247
Set signal latency stall time: 12
Reenqueueing errored packet 75384 at time 1781
Additional hops: 252
Set signal latency stall time: 10
Reenqueueing errored packet 53891 at time 1840
Additional hops: 261
Set signal latency stall time: 18
Reenqueueing errored packet 57017 at time 1974
Additional hops: 267
Set signal latency stall time: 12
Reenqueueing errored packet 66952 at time 1988
Additional hops: 272
Set signal latency stall time: 10
Reenqueueing errored packet 88098 at time 1999
Additional hops: 280
Set signal latency stall time: 16
Reenqueueing errored packet 82300 at time 2099
Additional hops: 286
Set signal latency stall time: 12
Additional hops: 293
Set signal latency stall time: 14
Reenqueueing errored packet 76204 at time 2159
Additional hops: 298
Set signal latency stall time: 10
Reenqueueing errored packet 89457 at time 2161
Reenqueueing errored packet 96191 at time 2170
Additional hops: 306
Set signal latency stall time: 16
Additional hops: 312
Set signal latency stall time: 12
Reenqueueing errored packet 79698 at time 2189
Reenqueueing errored packet 117320 at time 2200
Additional hops: 321
Set signal latency stall time: 18
Reenqueueing errored packet 76965 at time 2227
Additional hops: 327
Set signal latency stall time: 12
Reenqueueing errored packet 101662 at time 2288
Additional hops: 331
Set signal latency stall time: 8
Reenqueueing errored packet 100606 at time 2311
Additional hops: 338
Set signal latency stall time: 14
Additional hops: 345
Set signal latency stall time: 14
Additional hops: 352
Set signal latency stall time: 14
Reenqueueing errored packet 85530 at time 2338
Reenqueueing errored packet 69561 at time 2339
Reenqueueing errored packet 71188 at time 2345
Additional hops: 361
Set signal latency stall time: 18
Additional hops: 365
Set signal latency stall time: 8
Reenqueueing errored packet 78424 at time 2510
Additional hops: 373
Set signal latency stall time: 16
Reenqueueing errored packet 65533 at time 2604
Additional hops: 380
Set signal latency stall time: 14
Reenqueueing errored packet 81995 at time 2645
Additional hops: 387
Set signal latency stall time: 14
Reenqueueing errored packet 80218 at time 2698
Additional hops: 393
Set signal latency stall time: 12
Additional hops: 398
Set signal latency stall time: 10
Reenqueueing errored packet 66702 at time 2744
Additional hops: 403
Set signal latency stall time: 10
Additional hops: 408
Set signal latency stall time: 10
Reenqueueing errored packet 129199 at time 2958
Additional hops: 416
Set signal latency stall time: 16
Reenqueueing errored packet 126396 at time 3000
Additional hops: 419
Set signal latency stall time: 6
Additional hops: 423
Set signal latency stall time: 8
Additional hops: 429
Set signal latency stall time: 12
Reenqueueing errored packet 141936 at time 3099
Reenqueueing errored packet 161303 at time 3104
Additional hops: 434
Set signal latency stall time: 10
Reenqueueing errored packet 150894 at time 3115
Additional hops: 444
Set signal latency stall time: 20
Additional hops: 450
Set signal latency stall time: 12
Reenqueueing errored packet 143462 at time 3181
Additional hops: 458
Set signal latency stall time: 16
Reenqueueing errored packet 142786 at time 3328
Additional hops: 468
Set signal latency stall time: 20
Additional hops: 479
Set signal latency stall time: 22
Additional hops: 489
Set signal latency stall time: 20
Additional hops: 495
Set signal latency stall time: 12
Additional hops: 499
Set signal latency stall time: 8
Reenqueueing errored packet 155711 at time 3487
Additional hops: 507
Set signal latency stall time: 16
Additional hops: 517
Set signal latency stall time: 20
Reenqueueing errored packet 161408 at time 3571
Reenqueueing errored packet 69603 at time 3584
Additional hops: 526
Set signal latency stall time: 18
Reenqueueing errored packet 168440 at time 3620
Additional hops: 534
Set signal latency stall time: 16
Additional hops: 540
Set signal latency stall time: 12
Reenqueueing errored packet 170541 at time 3689
Additional hops: 552
Set signal latency stall time: 24
Reenqueueing errored packet 66020 at time 3844
Additional hops: 563
Set signal latency stall time: 22
Additional hops: 567
Set signal latency stall time: 8
Additional hops: 574
Set signal latency stall time: 14
Reenqueueing errored packet 165438 at time 3875
Reenqueueing errored packet 145031 at time 3884
Additional hops: 579
Set signal latency stall time: 10
Reenqueueing errored packet 117141 at time 4139
Additional hops: 585
Set signal latency stall time: 12
Reenqueueing errored packet 174391 at time 4199
Additional hops: 592
Set signal latency stall time: 14
Reenqueueing errored packet 187986 at time 4246
Additional hops: 600
Set signal latency stall time: 16
Reenqueueing errored packet 168169 at time 4272
Additional hops: 605
Set signal latency stall time: 10
Additional hops: 609
Set signal latency stall time: 8
Reenqueueing errored packet 180979 at time 4308
Reenqueueing errored packet 180587 at time 4316
Additional hops: 619
Set signal latency stall time: 20
Reenqueueing errored packet 76073 at time 4375
Additional hops: 637
Set signal latency stall time: 36
Additional hops: 645
Set signal latency stall time: 16
Additional hops: 649
Set signal latency stall time: 8
Reenqueueing errored packet 168440 at time 4412
Reenqueueing errored packet 182662 at time 4418
Additional hops: 662
Set signal latency stall time: 26
Additional hops: 665
Set signal latency stall time: 6
Additional hops: 673
Set signal latency stall time: 16
Reenqueueing errored packet 200489 at time 4522
Reenqueueing errored packet 186670 at time 4536
Additional hops: 682
Set signal latency stall time: 18
Additional hops: 689
Set signal latency stall time: 14
Reenqueueing errored packet 207895 at time 4596
Additional hops: 701
Set signal latency stall time: 24
Reenqueueing errored packet 133247 at time 4632
Additional hops: 705
Set signal latency stall time: 8
Reenqueueing errored packet 168301 at time 4874
Additional hops: 710
Set signal latency stall time: 10
Additional hops: 713
Set signal latency stall time: 6
Additional hops: 720
Set signal latency stall time: 14
Reenqueueing errored packet 152138 at time 4935
Additional hops: 732
Set signal latency stall time: 24
Additional hops: 735
Set signal latency stall time: 6
Reenqueueing errored packet 212728 at time 5003
Reenqueueing errored packet 88847 at time 5004
Additional hops: 739
Set signal latency stall time: 8
Reenqueueing errored packet 213398 at time 5028
Additional hops: 747
Set signal latency stall time: 16
Reenqueueing errored packet 191125 at time 5056
Additional hops: 751
Set signal latency stall time: 8
Additional hops: 758
Set signal latency stall time: 14
Reenqueueing errored packet 95948 at time 5211
Additional hops: 764
Set signal latency stall time: 12
Reenqueueing errored packet 205290 at time 5241
Additional hops: 772
Set signal latency stall time: 16
Reenqueueing errored packet 213599 at time 5293
Additional hops: 779
Set signal latency stall time: 14
Reenqueueing errored packet 203985 at time 5311
Additional hops: 785
Set signal latency stall time: 12
Additional hops: 793
Set signal latency stall time: 16
Additional hops: 797
Set signal latency stall time: 8
Additional hops: 805
Set signal latency stall time: 16
Additional hops: 810
Set signal latency stall time: 10
Additional hops: 813
Set signal latency stall time: 6
Reenqueueing errored packet 127110 at time 5434
Additional hops: 820
Set signal latency stall time: 14
Reenqueueing errored packet 118955 at time 5558
Additional hops: 827
Set signal latency stall time: 14
Additional hops: 838
Set signal latency stall time: 22
Additional hops: 845
Set signal latency stall time: 14
Reenqueueing errored packet 205547 at time 5591
Reenqueueing errored packet 93558 at time 5593
Additional hops: 853
Set signal latency stall time: 16
Additional hops: 864
Set signal latency stall time: 22
Additional hops: 871
Set signal latency stall time: 14
Additional hops: 881
Set signal latency stall time: 20
Reenqueueing errored packet 216216 at time 5784
Reenqueueing errored packet 233065 at time 5804
Additional hops: 887
Set signal latency stall time: 12
Reenqueueing errored packet 177877 at time 5887
Additional hops: 890
Set signal latency stall time: 6
Additional hops: 899
Set signal latency stall time: 18
Additional hops: 905
Set signal latency stall time: 12
Reenqueueing errored packet 229841 at time 5988
Additional hops: 912
Set signal latency stall time: 14
Additional hops: 922
Set signal latency stall time: 20
Reenqueueing errored packet 227023 at time 6141
Additional hops: 924
Set signal latency stall time: 4
Reenqueueing errored packet 248956 at time 6152
Additional hops: 929
Set signal latency stall time: 10
Reenqueueing errored packet 222487 at time 6175
Additional hops: 937
Set signal latency stall time: 16
Reenqueueing errored packet 119135 at time 6307
Additional hops: 945
Set signal latency stall time: 16
Additional hops: 950
Set signal latency stall time: 10
Additional hops: 958
Set signal latency stall time: 16
Additional hops: 965
Set signal latency stall time: 14
Reenqueueing errored packet 240304 at time 6430
Additional hops: 972
Set signal latency stall time: 14
Reenqueueing errored packet 126315 at time 6449
Additional hops: 982
Set signal latency stall time: 20
Additional hops: 989
Set signal latency stall time: 14
Additional hops: 996
Set signal latency stall time: 14
Reenqueueing errored packet 185374 at time 6503
Additional hops: 999
Set signal latency stall time: 6
Reenqueueing errored packet 254555 at time 6513
Additional hops: 1007
Set signal latency stall time: 16
Reenqueueing errored packet 237734 at time 6596
Additional hops: 1013
Set signal latency stall time: 12
Additional hops: 1018
Set signal latency stall time: 10
Reenqueueing errored packet 235896 at time 6619
Additional hops: 1027
Set signal latency stall time: 18
Reenqueueing errored packet 132066 at time 6698
Additional hops: 1037
Set signal latency stall time: 20
Reenqueueing errored packet 123484 at time 6719
Additional hops: 1041
Set signal latency stall time: 8
Additional hops: 1047
Set signal latency stall time: 12
Reenqueueing errored packet 263579 at time 6791
Additional hops: 1052
Set signal latency stall time: 10
Reenqueueing errored packet 266256 at time 6820
Additional hops: 1061
Set signal latency stall time: 18
Additional hops: 1070
Set signal latency stall time: 18
Additional hops: 1073
Set signal latency stall time: 6
Reenqueueing errored packet 262062 at time 6868
Reenqueueing errored packet 259676 at time 6871
Reenqueueing errored packet 124098 at time 6878
Additional hops: 1081
Set signal latency stall time: 16
Reenqueueing errored packet 213072 at time 6921
Additional hops: 1086
Set signal latency stall time: 10
Reenqueueing errored packet 261913 at time 6949
Additional hops: 1100
Set signal latency stall time: 28
Additional hops: 1108
Set signal latency stall time: 16
Reenqueueing errored packet 118438 at time 6987
Additional hops: 1114
Set signal latency stall time: 12
Reenqueueing errored packet 247794 at time 6989
Additional hops: 1119
Set signal latency stall time: 10
Additional hops: 1128
Set signal latency stall time: 18
Additional hops: 1137
Set signal latency stall time: 18
Additional hops: 1139
Set signal latency stall time: 4
Reenqueueing errored packet 280231 at time 7143
Additional hops: 1150
Set signal latency stall time: 22
Reenqueueing errored packet 211662 at time 7282
Additional hops: 1158
Set signal latency stall time: 16
Additional hops: 1166
Set signal latency stall time: 16
Reenqueueing errored packet 228537 at time 7368
Additional hops: 1176
Set signal latency stall time: 20
Reenqueueing errored packet 271051 at time 7466
Additional hops: 1183
Set signal latency stall time: 14
Reenqueueing errored packet 133949 at time 7491
Additional hops: 1187
Set signal latency stall time: 8
Additional hops: 1196
Set signal latency stall time: 18
Reenqueueing errored packet 227013 at time 7538
Additional hops: 1201
Set signal latency stall time: 10
Reenqueueing errored packet 277203 at time 7586
Additional hops: 1209
Set signal latency stall time: 16
Reenqueueing errored packet 238588 at time 7626
Additional hops: 1218
Set signal latency stall time: 18
Reenqueueing errored packet 236746 at time 7698
Additional hops: 1221
Set signal latency stall time: 6
Reenqueueing errored packet 208810 at time 7818
Additional hops: 1225
Set signal latency stall time: 8
Reenqueueing errored packet 279327 at time 7840
Additional hops: 1228
Set signal latency stall time: 6
Reenqueueing errored packet 293096 at time 7858
Additional hops: 1232
Set signal latency stall time: 8
Reenqueueing errored packet 293699 at time 7891
Additional hops: 1237
Set signal latency stall time: 10
Additional hops: 1248
Set signal latency stall time: 22
Reenqueueing errored packet 139834 at time 8026
Additional hops: 1257
Set signal latency stall time: 18
Additional hops: 1267
Set signal latency stall time: 20
Reenqueueing errored packet 138354 at time 8071
Additional hops: 1270
Set signal latency stall time: 6
Reenqueueing errored packet 309920 at time 8129
Additional hops: 1275
Set signal latency stall time: 10
Additional hops: 1285
Set signal latency stall time: 20
Additional hops: 1290
Set signal latency stall time: 10
Reenqueueing errored packet 184318 at time 8217
Reenqueueing errored packet 302066 at time 8221
Additional hops: 1299
Set signal latency stall time: 18
Additional hops: 1305
Set signal latency stall time: 12
Reenqueueing errored packet 310874 at time 8284
Additional hops: 1311
Set signal latency stall time: 12
Additional hops: 1319
Set signal latency stall time: 16
Reenqueueing errored packet 303252 at time 8472
Additional hops: 1323
Set signal latency stall time: 8
Reenqueueing errored packet 198275 at time 8485
Additional hops: 1330
Set signal latency stall time: 14
Additional hops: 1338
Set signal latency stall time: 16
Reenqueueing errored packet 260906 at time 8501
Reenqueueing errored packet 302266 at time 8517
Additional hops: 1346
Set signal latency stall time: 16
Reenqueueing errored packet 269726 at time 8535
Additional hops: 1354
Set signal latency stall time: 16
Reenqueueing errored packet 307691 at time 8572
Additional hops: 1361
Set signal latency stall time: 14
Additional hops: 1371
Set signal latency stall time: 20
Reenqueueing errored packet 312941 at time 8693
Reenqueueing errored packet 266311 at time 8702
Additional hops: 1381
Set signal latency stall time: 20
Reenqueueing errored packet 321198 at time 8909
Additional hops: 1387
Set signal latency stall time: 12
Reenqueueing errored packet 283172 at time 8959
Additional hops: 1391
Set signal latency stall time: 8
Reenqueueing errored packet 341861 at time 9123
Additional hops: 1400
Set signal latency stall time: 18
Additional hops: 1402
Set signal latency stall time: 4
Reenqueueing errored packet 347407 at time 9184
Additional hops: 1407
Set signal latency stall time: 10
Reenqueueing errored packet 342844 at time 9199
Additional hops: 1413
Set signal latency stall time: 12
Additional hops: 1422
Set signal latency stall time: 18
Additional hops: 1431
Set signal latency stall time: 18
Additional hops: 1437
Set signal latency stall time: 12
Reenqueueing errored packet 337500 at time 9394
Additional hops: 1443
Set signal latency stall time: 12
Reenqueueing errored packet 324125 at time 9411
Additional hops: 1447
Set signal latency stall time: 8
Additional hops: 1452
Set signal latency stall time: 10
Additional hops: 1458
Set signal latency stall time: 12
Reenqueueing errored packet 349281 at time 9512
Additional hops: 1460
Set signal latency stall time: 4
Reenqueueing errored packet 354987 at time 9528
Additional hops: 1463
Set signal latency stall time: 6
Additional hops: 1470
Set signal latency stall time: 14
Additional hops: 1478
Set signal latency stall time: 16
Additional hops: 1484
Set signal latency stall time: 12
Additional hops: 1492
Set signal latency stall time: 16
Reenqueueing errored packet 302390 at time 9698
Reenqueueing errored packet 270777 at time 9709
Additional hops: 1503
Set signal latency stall time: 22
Additional hops: 1511
Set signal latency stall time: 16
Reenqueueing errored packet 341837 at time 9799
Additional hops: 1517
Set signal latency stall time: 12
Reenqueueing errored packet 334785 at time 9838
Additional hops: 1524
Set signal latency stall time: 14
Additional hops: 1530
Set signal latency stall time: 12
Additional hops: 1536
Set signal latency stall time: 12
Class 0:
Packet latency average = 2026.96
	minimum = 5
	maximum = 7767
Network latency average = 1616.57
	minimum = 5
	maximum = 7277
Slowest packet = 138722
Flit latency average = 1616.57
	minimum = 5
	maximum = 7277
Slowest flit = 162024
Fragmentation average = 0
	minimum = 0
	maximum = 0
Injected packet rate average = 0.618591
	minimum = 0.4157 (at node 25)
	maximum = 0.9018 (at node 27)
Accepted packet rate average = 0.501091
	minimum = 0.4797 (at node 21)
	maximum = 0.5181 (at node 56)
Injected flit rate average = 0.618591
	minimum = 0.4157 (at node 25)
	maximum = 0.9018 (at node 27)
Accepted flit rate average= 0.501091
	minimum = 0.4797 (at node 21)
	maximum = 0.5181 (at node 56)
Injected packet length average = 1
Accepted packet length average = 1
Total in-flight flits = 75298 (0 measured)
latency change    = 1
throughput change = 1
Average latency for class 0 exceeded 500 cycles. Aborting simulation.
Too many sample periods needed to converge
Simulation unstable, ending ...
Total run time 60.5362
