BEGIN Configuration File: examples/ecc_mesh88_config_1_0.750_link_3
// $Id$

// Copyright (c) 2007-2015, Trustees of The Leland Stanford Junior University
// All rights reserved.
//
// Redistribution and use in source and binary forms, with or without
// modification, are permitted provided that the following conditions are met:
//
// Redistributions of source code must retain the above copyright notice, this
// list of conditions and the following disclaimer.
// Redistributions in binary form must reproduce the above copyright notice,
// this list of conditions and the following disclaimer in the documentation
// and/or other materials provided with the distribution.
//
// THIS SOFTWARE IS PROVIDED BY THE COPYRIGHT HOLDERS AND CONTRIBUTORS "AS IS"
// AND ANY EXPRESS OR IMPLIED WARRANTIES, INCLUDING, BUT NOT LIMITED TO, THE
// IMPLIED WARRANTIES OF MERCHANTABILITY AND FITNESS FOR A PARTICULAR PURPOSE
// ARE DISCLAIMED. IN NO EVENT SHALL THE COPYRIGHT OWNER OR CONTRIBUTORS BE
// LIABLE FOR ANY DIRECT, INDIRECT, INCIDENTAL, SPECIAL, EXEMPLARY, OR
// CONSEQUENTIAL DAMAGES (INCLUDING, BUT NOT LIMITED TO, PROCUREMENT OF
// SUBSTITUTE GOODS OR SERVICES; LOSS OF USE, DATA, OR PROFITS; OR BUSINESS
// INTERRUPTION) HOWEVER CAUSED AND ON ANY THEORY OF LIABILITY, WHETHER IN
// CONTRACT, STRICT LIABILITY, OR TORT (INCLUDING NEGLIGENCE OR OTHERWISE)
// ARISING IN ANY WAY OUT OF THE USE OF THIS SOFTWARE, EVEN IF ADVISED OF THE
// POSSIBILITY OF SUCH DAMAGE.

// Dragonfly
//




vc_buf_size = 256;


wait_for_tail_credit = 0;

//
// Router architecture
//
vc_allocator = separable_input_first; 
sw_allocator = separable_input_first;
alloc_iters  = 1;

credit_delay   = 2;
routing_delay  = 0;
vc_alloc_delay = 1;
sw_alloc_delay = 1;
st_final_delay = 1;

input_speedup     = 1;
output_speedup    = 1;
internal_speedup  = 2.0;


warmup_periods = 3;
sim_count          = 1;

sample_period  = 10000;  


routing_function = dor;
num_vcs     = 2;

priority = none;
traffic       = uniform; 

injection_rate = 0.75;
packet_size = 1;
injection_rate_uses_flits = 1;

topology = mesh;

k  = 8;
n  = 2;

fer = 3;
ecc = link;

watch_out=-;
//watch_file = watch.txt;

ecc = link;

stats_out = examples/ecc_mesh88_config_1_0.750_link_3.m;

END Configuration File: examples/ecc_mesh88_config_1_0.750_link_3
1
3
Received nack credit for flit 514
Requeued flit 514
Received nack credit for flit 817
Requeued flit 817
2
2
9
Received nack credit for flit 688
Requeued flit 688
5
Received nack credit for flit 1034
Requeued flit 1034
1
Received nack credit for flit 513
Requeued flit 513
Received nack credit for flit 124
Requeued flit 124
3
Received nack credit for flit 1641
Requeued flit 1641
Received nack credit for flit 1177
Requeued flit 1177
1
1
Received nack credit for flit 2140
Requeued flit 2140
Received nack credit for flit 2784
Requeued flit 2784
3
Received nack credit for flit 2003
Requeued flit 2003
5
1
1
Received nack credit for flit 2335
Requeued flit 2335
Received nack credit for flit 2825
Requeued flit 2825
Received nack credit for flit 2889
Requeued flit 2889
4
Received nack credit for flit 2904
Requeued flit 2904
9
3
Received nack credit for flit 1007
Requeued flit 1007
Received nack credit for flit 2484
Requeued flit 2484
3
Received nack credit for flit 3945
Requeued flit 3945
2
1
Received nack credit for flit 4412
Requeued flit 4412
Received nack credit for flit 5236
Requeued flit 5236
1
2
1
Received nack credit for flit 4894
Requeued flit 4894
1
Received nack credit for flit 3638
Requeued flit 3638
Received nack credit for flit 5448
Requeued flit 5448
Received nack credit for flit 4639
Requeued flit 4639
3
3
6
Received nack credit for flit 3246
Requeued flit 3246
1
Received nack credit for flit 2793
Requeued flit 2793
Received nack credit for flit 6446
Requeued flit 6446
Received nack credit for flit 5104
Requeued flit 5104
1
1
Received nack credit for flit 7081
Requeued flit 7081
Received nack credit for flit 6073
Requeued flit 6073
5
2
3
Received nack credit for flit 3897
Requeued flit 3897
Received nack credit for flit 5625
Requeued flit 5625
Received nack credit for flit 6681
Requeued flit 6681
3
8
Received nack credit for flit 4851
Requeued flit 4851
Received nack credit for flit 3313
Requeued flit 3313
4
Received nack credit for flit 6126
Requeued flit 6126
6
Received nack credit for flit 6038
Requeued flit 6038
5
Received nack credit for flit 6133
Requeued flit 6133
3
1
Received nack credit for flit 5593
Requeued flit 5593
Received nack credit for flit 10167
Requeued flit 10167
1
4
Received nack credit for flit 9912
Requeued flit 9912
2
3
11
Received nack credit for flit 8906
Requeued flit 8906
Received nack credit for flit 10337
Requeued flit 10337
Received nack credit for flit 9333
Requeued flit 9333
Received nack credit for flit 4111
Requeued flit 4111
6
5
Received nack credit for flit 6366
Requeued flit 6366
5
2
5
Received nack credit for flit 8946
Requeued flit 8946
Received nack credit for flit 7727
Requeued flit 7727
Received nack credit for flit 11459
Requeued flit 11459
Received nack credit for flit 9453
Requeued flit 9453
5
1
Received nack credit for flit 13301
Requeued flit 13301
Received nack credit for flit 8208
Requeued flit 8208
4
1
Received nack credit for flit 8652
Requeued flit 8652
Received nack credit for flit 13859
Requeued flit 13859
5
9
Received nack credit for flit 5390
Requeued flit 5390
Received nack credit for flit 9810
Requeued flit 9810
2
1
1
Received nack credit for flit 13899
Requeued flit 13899
Received nack credit for flit 11456
Requeued flit 11456
4
Received nack credit for flit 14918
Requeued flit 14918
Received nack credit for flit 11706
Requeued flit 11706
2
1
Received nack credit for flit 11681
Requeued flit 11681
Received nack credit for flit 15438
Requeued flit 15438
1
2
Received nack credit for flit 15880
Requeued flit 15880
Received nack credit for flit 11277
Requeued flit 11277
5
6
Received nack credit for flit 10738
Requeued flit 10738
2
Received nack credit for flit 10012
Requeued flit 10012
Received nack credit for flit 11244
Requeued flit 11244
1
Received nack credit for flit 16440
Requeued flit 16440
4
Received nack credit for flit 9246
Requeued flit 9246
3
Received nack credit for flit 13632
Requeued flit 13632
1
1
1
Received nack credit for flit 17854
Requeued flit 17854
1
Received nack credit for flit 16470
Requeued flit 16470
Received nack credit for flit 18763
Requeued flit 18763
4
Received nack credit for flit 16900
Requeued flit 16900
1
Received nack credit for flit 9865
Requeued flit 9865
4
3
Received nack credit for flit 14768
Requeued flit 14768
Received nack credit for flit 18076
Requeued flit 18076
1
2
Received nack credit for flit 12889
Requeued flit 12889
1
Received nack credit for flit 17666
Requeued flit 17666
Received nack credit for flit 19188
Requeued flit 19188
3
Received nack credit for flit 19858
Requeued flit 19858
5
1
Received nack credit for flit 19367
Requeued flit 19367
Received nack credit for flit 12002
Requeued flit 12002
1
Received nack credit for flit 17747
Requeued flit 17747
1
10
Received nack credit for flit 20420
Requeued flit 20420
Received nack credit for flit 18204
Requeued flit 18204
Received nack credit for flit 7736
Requeued flit 7736
4
Received nack credit for flit 18282
Requeued flit 18282
4
2
Received nack credit for flit 20219
Requeued flit 20219
Received nack credit for flit 14439
Requeued flit 14439
1
1
Received nack credit for flit 16319
Requeued flit 16319
1
Received nack credit for flit 21599
Requeued flit 21599
2
Received nack credit for flit 21834
Requeued flit 21834
5
Received nack credit for flit 18367
Requeued flit 18367
Received nack credit for flit 17835
Requeued flit 17835
1
3
2
Received nack credit for flit 18978
Requeued flit 18978
1
Received nack credit for flit 14598
Requeued flit 14598
Received nack credit for flit 21886
Requeued flit 21886
Received nack credit for flit 22911
Requeued flit 22911
1
4
9
1
Received nack credit for flit 20525
Requeued flit 20525
5
5
Received nack credit for flit 12135
Requeued flit 12135
Received nack credit for flit 15749
Requeued flit 15749
Received nack credit for flit 20363
Requeued flit 20363
Received nack credit for flit 14410
Requeued flit 14410
1
Received nack credit for flit 19037
Requeued flit 19037
7
Received nack credit for flit 23800
Requeued flit 23800
Received nack credit for flit 9715
Requeued flit 9715
3
Received nack credit for flit 13952
Requeued flit 13952
1
3
8
1
Received nack credit for flit 22845
Requeued flit 22845
6
Received nack credit for flit 18455
Requeued flit 18455
Received nack credit for flit 11660
Requeued flit 11660
Received nack credit for flit 24720
Requeued flit 24720
6
Received nack credit for flit 14825
Requeued flit 14825
4
8
Received nack credit for flit 10709
Requeued flit 10709
Received nack credit for flit 18004
Requeued flit 18004
Received nack credit for flit 12528
Requeued flit 12528
7
5
Received nack credit for flit 18379
Requeued flit 18379
Received nack credit for flit 22175
Requeued flit 22175
2
Received nack credit for flit 21659
Requeued flit 21659
3
Received nack credit for flit 15658
Requeued flit 15658
1
3
Received nack credit for flit 21740
Requeued flit 21740
Received nack credit for flit 25172
Requeued flit 25172
3
4
2
Received nack credit for flit 21750
Requeued flit 21750
Received nack credit for flit 23434
Requeued flit 23434
Received nack credit for flit 18745
Requeued flit 18745
4
7
4
Received nack credit for flit 12674
Requeued flit 12674
Received nack credit for flit 21582
Requeued flit 21582
Received nack credit for flit 23529
Requeued flit 23529
1
7
Received nack credit for flit 26356
Requeued flit 26356
Received nack credit for flit 14388
Requeued flit 14388
9
Received nack credit for flit 11415
Requeued flit 11415
4
2
Received nack credit for flit 18114
Requeued flit 18114
7
Received nack credit for flit 28786
Requeued flit 28786
Received nack credit for flit 15590
Requeued flit 15590
3
1
2
Received nack credit for flit 20978
Requeued flit 20978
Received nack credit for flit 31335
Requeued flit 31335
7
Received nack credit for flit 27946
Requeued flit 27946
4
2
Received nack credit for flit 20000
Requeued flit 20000
Received nack credit for flit 17228
Requeued flit 17228
1
1
Received nack credit for flit 26534
Requeued flit 26534
Received nack credit for flit 31052
Requeued flit 31052
Received nack credit for flit 28061
Requeued flit 28061
6
Received nack credit for flit 24467
Requeued flit 24467
2
Received nack credit for flit 22171
Requeued flit 22171
1
3
Received nack credit for flit 33076
Requeued flit 33076
Received nack credit for flit 32359
Requeued flit 32359
5
Received nack credit for flit 27499
Requeued flit 27499
2
Received nack credit for flit 29472
Requeued flit 29472
2
Received nack credit for flit 34139
Requeued flit 34139
1
4
Received nack credit for flit 30131
Requeued flit 30131
Received nack credit for flit 30928
Requeued flit 30928
4
1
2
Received nack credit for flit 31678
Requeued flit 31678
1
Received nack credit for flit 30634
Requeued flit 30634
Received nack credit for flit 23869
Requeued flit 23869
Received nack credit for flit 31233
Requeued flit 31233
1
Received nack credit for flit 36025
Requeued flit 36025
2
Received nack credit for flit 23497
Requeued flit 23497
1
Received nack credit for flit 37033
Requeued flit 37033
1
4
Received nack credit for flit 33926
Requeued flit 33926
2
Received nack credit for flit 21953
Requeued flit 21953
1
4
Received nack credit for flit 37371
Requeued flit 37371
Received nack credit for flit 32991
Requeued flit 32991
1
Received nack credit for flit 29882
Requeued flit 29882
2
Received nack credit for flit 29570
Requeued flit 29570
Received nack credit for flit 38016
Requeued flit 38016
1
1
4
5
Received nack credit for flit 38973
Requeued flit 38973
1
Received nack credit for flit 21869
Requeued flit 21869
1
Received nack credit for flit 39062
Requeued flit 39062
8
Received nack credit for flit 29500
Requeued flit 29500
Received nack credit for flit 39133
Requeued flit 39133
3
Received nack credit for flit 38181
Requeued flit 38181
1
Received nack credit for flit 19303
Requeued flit 19303
1
Received nack credit for flit 35518
Requeued flit 35518
Received nack credit for flit 39149
Requeued flit 39149
Received nack credit for flit 36556
Requeued flit 36556
1
1
1
Received nack credit for flit 34836
Requeued flit 34836
Received nack credit for flit 40149
Requeued flit 40149
Received nack credit for flit 36337
Requeued flit 36337
1
1
Received nack credit for flit 34543
Requeued flit 34543
Received nack credit for flit 35906
Requeued flit 35906
3
Received nack credit for flit 36982
Requeued flit 36982
3
Received nack credit for flit 41529
Requeued flit 41529
1
10
10
1
Received nack credit for flit 37623
Requeued flit 37623
1
1
2
Received nack credit for flit 25340
Requeued flit 25340
Received nack credit for flit 36831
Requeued flit 36831
3
1
Received nack credit for flit 42427
Requeued flit 42427
Received nack credit for flit 42636
Requeued flit 42636
8
Received nack credit for flit 29754
Requeued flit 29754
Received nack credit for flit 42497
Requeued flit 42497
Received nack credit for flit 42764
Requeued flit 42764
Received nack credit for flit 23336
Requeued flit 23336
3
1
Received nack credit for flit 25286
Requeued flit 25286
Received nack credit for flit 43441
Requeued flit 43441
1
Received nack credit for flit 43710
Requeued flit 43710
7
1
1
4
Received nack credit for flit 28178
Requeued flit 28178
Received nack credit for flit 44180
Requeued flit 44180
Received nack credit for flit 44192
Requeued flit 44192
3
Received nack credit for flit 27137
Requeued flit 27137
Received nack credit for flit 39079
Requeued flit 39079
1
Received nack credit for flit 34386
Requeued flit 34386
1
1
Received nack credit for flit 39297
Requeued flit 39297
Received nack credit for flit 44123
Requeued flit 44123
3
2
7
Received nack credit for flit 26242
Requeued flit 26242
Received nack credit for flit 22199
Requeued flit 22199
Received nack credit for flit 46322
Requeued flit 46322
4
3
Received nack credit for flit 26890
Requeued flit 26890
Received nack credit for flit 38067
Requeued flit 38067
1
Received nack credit for flit 45607
Requeued flit 45607
6
Received nack credit for flit 27613
Requeued flit 27613
1
Received nack credit for flit 49444
Requeued flit 49444
7
3
Received nack credit for flit 27056
Requeued flit 27056
Received nack credit for flit 40073
Requeued flit 40073
1
3
8
Received nack credit for flit 39633
Requeued flit 39633
Received nack credit for flit 29109
Requeued flit 29109
Received nack credit for flit 27285
Requeued flit 27285
2
Received nack credit for flit 41726
Requeued flit 41726
9
Received nack credit for flit 24802
Requeued flit 24802
2
2
Received nack credit for flit 42374
Requeued flit 42374
1
2
Received nack credit for flit 34729
Requeued flit 34729
Received nack credit for flit 39724
Requeued flit 39724
4
3
5
Received nack credit for flit 34253
Requeued flit 34253
Received nack credit for flit 36395
Requeued flit 36395
Received nack credit for flit 32819
Requeued flit 32819
Received nack credit for flit 49175
Requeued flit 49175
2
4
Received nack credit for flit 52284
Requeued flit 52284
8
5
Received nack credit for flit 32953
Requeued flit 32953
Received nack credit for flit 24545
Requeued flit 24545
4
Received nack credit for flit 43793
Requeued flit 43793
4
4
Received nack credit for flit 40692
Requeued flit 40692
Received nack credit for flit 30243
Requeued flit 30243
Received nack credit for flit 29449
Requeued flit 29449
5
6
Received nack credit for flit 46830
Requeued flit 46830
Received nack credit for flit 49036
Requeued flit 49036
1
Received nack credit for flit 54632
Requeued flit 54632
1
10
Received nack credit for flit 54931
Requeued flit 54931
2
1
Received nack credit for flit 45475
Requeued flit 45475
Received nack credit for flit 48669
Requeued flit 48669
Received nack credit for flit 28079
Requeued flit 28079
7
2
Received nack credit for flit 35457
Requeued flit 35457
8
4
3
Received nack credit for flit 55880
Requeued flit 55880
1
1
1
Received nack credit for flit 38593
Requeued flit 38593
Received nack credit for flit 40422
Requeued flit 40422
Received nack credit for flit 56501
Requeued flit 56501
Received nack credit for flit 50462
Requeued flit 50462
Received nack credit for flit 50786
Requeued flit 50786
1
Received nack credit for flit 54553
Requeued flit 54553
5
Received nack credit for flit 56853
Requeued flit 56853
Received nack credit for flit 41792
Requeued flit 41792
1
3
Received nack credit for flit 57190
Requeued flit 57190
1
1
3
1
Received nack credit for flit 38325
Requeued flit 38325
Received nack credit for flit 57448
Requeued flit 57448
Received nack credit for flit 49134
Requeued flit 49134
Received nack credit for flit 34470
Requeued flit 34470
2
Received nack credit for flit 49393
Requeued flit 49393
4
Received nack credit for flit 38034
Requeued flit 38034
Received nack credit for flit 33865
Requeued flit 33865
3
1
Received nack credit for flit 51880
Requeued flit 51880
5
Received nack credit for flit 49518
Requeued flit 49518
Received nack credit for flit 34446
Requeued flit 34446
5
Received nack credit for flit 47401
Requeued flit 47401
1
Received nack credit for flit 59312
Requeued flit 59312
2
7
Received nack credit for flit 38202
Requeued flit 38202
5
Received nack credit for flit 47783
Requeued flit 47783
12
Received nack credit for flit 31976
Requeued flit 31976
1
Received nack credit for flit 24503
Requeued flit 24503
4
Received nack credit for flit 60495
Requeued flit 60495
2
1
Received nack credit for flit 41310
Requeued flit 41310
Received nack credit for flit 52770
Requeued flit 52770
Received nack credit for flit 53423
Requeued flit 53423
1
5
4
Received nack credit for flit 53407
Requeued flit 53407
7
Received nack credit for flit 36585
Requeued flit 36585
1
Received nack credit for flit 35174
Requeued flit 35174
Received nack credit for flit 42628
Requeued flit 42628
Received nack credit for flit 46293
Requeued flit 46293
3
4
2
Received nack credit for flit 61461
Requeued flit 61461
Received nack credit for flit 39761
Requeued flit 39761
Received nack credit for flit 53363
Requeued flit 53363
2
Received nack credit for flit 62039
Requeued flit 62039
10
Received nack credit for flit 31779
Requeued flit 31779
7
1
1
1
1
Received nack credit for flit 63155
Requeued flit 63155
5
Received nack credit for flit 36410
Requeued flit 36410
Received nack credit for flit 62973
Requeued flit 62973
Received nack credit for flit 63273
Requeued flit 63273
Received nack credit for flit 63351
Requeued flit 63351
Received nack credit for flit 55670
Requeued flit 55670
1
1
1
1
Received nack credit for flit 63988
Requeued flit 63988
1
Received nack credit for flit 55868
Requeued flit 55868
Received nack credit for flit 55417
Requeued flit 55417
Received nack credit for flit 64209
Requeued flit 64209
Received nack credit for flit 64302
Requeued flit 64302
2
1
9
1
Received nack credit for flit 44273
Requeued flit 44273
Received nack credit for flit 64639
Requeued flit 64639
Received nack credit for flit 63691
Requeued flit 63691
Received nack credit for flit 33491
Requeued flit 33491
1
6
6
4
Received nack credit for flit 65382
Requeued flit 65382
Received nack credit for flit 38340
Requeued flit 38340
3
Received nack credit for flit 37345
Requeued flit 37345
2
Received nack credit for flit 59133
Requeued flit 59133
Received nack credit for flit 53306
Requeued flit 53306
Received nack credit for flit 53757
Requeued flit 53757
4
Received nack credit for flit 48088
Requeued flit 48088
1
2
Received nack credit for flit 50816
Requeued flit 50816
1
1
Received nack credit for flit 57405
Requeued flit 57405
1
1
Received nack credit for flit 55876
Requeued flit 55876
Received nack credit for flit 66822
Requeued flit 66822
Received nack credit for flit 51688
Requeued flit 51688
Received nack credit for flit 52085
Requeued flit 52085
1
1
3
Received nack credit for flit 67270
Requeued flit 67270
Received nack credit for flit 66781
Requeued flit 66781
Received nack credit for flit 42320
Requeued flit 42320
4
11
3
Received nack credit for flit 57267
Requeued flit 57267
Received nack credit for flit 27645
Requeued flit 27645
Received nack credit for flit 65513
Requeued flit 65513
3
Received nack credit for flit 61436
Requeued flit 61436
3
4
9
Received nack credit for flit 56797
Requeued flit 56797
Received nack credit for flit 57590
Requeued flit 57590
1
Received nack credit for flit 29921
Requeued flit 29921
5
4
3
Received nack credit for flit 68689
Requeued flit 68689
Received nack credit for flit 41234
Requeued flit 41234
Received nack credit for flit 40642
Requeued flit 40642
Received nack credit for flit 60723
Requeued flit 60723
1
1
Received nack credit for flit 69823
Requeued flit 69823
5
Received nack credit for flit 60670
Requeued flit 60670
1
Received nack credit for flit 39704
Requeued flit 39704
Received nack credit for flit 53969
Requeued flit 53969
1
1
Received nack credit for flit 62851
Requeued flit 62851
Received nack credit for flit 70646
Requeued flit 70646
3
4
1
1
Received nack credit for flit 39711
Requeued flit 39711
Received nack credit for flit 60808
Requeued flit 60808
Received nack credit for flit 64223
Requeued flit 64223
Received nack credit for flit 55554
Requeued flit 55554
2
Received nack credit for flit 59333
Requeued flit 59333
3
Received nack credit for flit 41763
Requeued flit 41763
7
2
Received nack credit for flit 54506
Requeued flit 54506
Received nack credit for flit 71820
Requeued flit 71820
3
5
Received nack credit for flit 62608
Requeued flit 62608
2
Received nack credit for flit 54600
Requeued flit 54600
Received nack credit for flit 72673
Requeued flit 72673
2
3
Received nack credit for flit 60253
Requeued flit 60253
Received nack credit for flit 70784
Requeued flit 70784
6
1
Received nack credit for flit 41943
Requeued flit 41943
3
Received nack credit for flit 63013
Requeued flit 63013
Received nack credit for flit 49933
Requeued flit 49933
1
Received nack credit for flit 65392
Requeued flit 65392
2
3
4
3
Received nack credit for flit 56631
Requeued flit 56631
Received nack credit for flit 74460
Requeued flit 74460
Received nack credit for flit 70995
Requeued flit 70995
Received nack credit for flit 57201
Requeued flit 57201
1
1
Received nack credit for flit 65422
Requeued flit 65422
1
Received nack credit for flit 66701
Requeued flit 66701
6
1
Received nack credit for flit 57974
Requeued flit 57974
Received nack credit for flit 51066
Requeued flit 51066
5
Received nack credit for flit 57921
Requeued flit 57921
Received nack credit for flit 44508
Requeued flit 44508
1
Received nack credit for flit 75665
Requeued flit 75665
1
1
1
Received nack credit for flit 72588
Requeued flit 72588
2
Received nack credit for flit 67558
Requeued flit 67558
Received nack credit for flit 66209
Requeued flit 66209
Received nack credit for flit 68025
Requeued flit 68025
1
3
Received nack credit for flit 68402
Requeued flit 68402
Received nack credit for flit 62780
Requeued flit 62780
1
1
4
3
3
Received nack credit for flit 77773
Requeued flit 77773
Received nack credit for flit 68797
Requeued flit 68797
Received nack credit for flit 69811
Requeued flit 69811
Received nack credit for flit 51251
Requeued flit 51251
Received nack credit for flit 74020
Requeued flit 74020
1
2
Received nack credit for flit 69337
Requeued flit 69337
Received nack credit for flit 49011
Requeued flit 49011
1
4
Received nack credit for flit 71239
Requeued flit 71239
Received nack credit for flit 53366
Requeued flit 53366
1
4
Received nack credit for flit 76968
Requeued flit 76968
1
Received nack credit for flit 49877
Requeued flit 49877
Received nack credit for flit 60661
Requeued flit 60661
1
Received nack credit for flit 80014
Requeued flit 80014
2
5
Received nack credit for flit 52869
Requeued flit 52869
Received nack credit for flit 65747
Requeued flit 65747
4
5
2
Received nack credit for flit 34253
Requeued flit 34253
Received nack credit for flit 45870
Requeued flit 45870
Received nack credit for flit 78512
Requeued flit 78512
5
Received nack credit for flit 62138
Requeued flit 62138
1
2
1
2
Received nack credit for flit 73409
Requeued flit 73409
Received nack credit for flit 82200
Requeued flit 82200
Received nack credit for flit 82612
Requeued flit 82612
Received nack credit for flit 72584
Requeued flit 72584
5
Received nack credit for flit 59381
Requeued flit 59381
2
Received nack credit for flit 56497
Requeued flit 56497
3
1
Received nack credit for flit 68175
Requeued flit 68175
Received nack credit for flit 83259
Requeued flit 83259
1
1
Received nack credit for flit 83939
Requeued flit 83939
4
Received nack credit for flit 65443
Requeued flit 65443
3
6
Received nack credit for flit 63827
Requeued flit 63827
Received nack credit for flit 49166
Requeued flit 49166
Received nack credit for flit 61271
Requeued flit 61271
12
1
Received nack credit for flit 35110
Requeued flit 35110
Received nack credit for flit 85171
Requeued flit 85171
1
Received nack credit for flit 82226
Requeued flit 82226
1
1
2
Received nack credit for flit 86159
Requeued flit 86159
Received nack credit for flit 83974
Requeued flit 83974
4
Received nack credit for flit 77467
Requeued flit 77467
1
Received nack credit for flit 70418
Requeued flit 70418
Received nack credit for flit 86667
Requeued flit 86667
1
1
Received nack credit for flit 67652
Requeued flit 67652
Received nack credit for flit 73332
Requeued flit 73332
6
1
9
Received nack credit for flit 48370
Requeued flit 48370
3
6
Received nack credit for flit 83760
Requeued flit 83760
Received nack credit for flit 44731
Requeued flit 44731
Received nack credit for flit 57224
Requeued flit 57224
Received nack credit for flit 49672
Requeued flit 49672
1
5
Received nack credit for flit 76194
Requeued flit 76194
5
1
Received nack credit for flit 50747
Requeued flit 50747
5
Received nack credit for flit 50001
Requeued flit 50001
Received nack credit for flit 88237
Requeued flit 88237
1
Received nack credit for flit 56284
Requeued flit 56284
Received nack credit for flit 87797
Requeued flit 87797
7
4
Received nack credit for flit 70556
Requeued flit 70556
2
Received nack credit for flit 76389
Requeued flit 76389
6
Received nack credit for flit 77330
Requeued flit 77330
1
Received nack credit for flit 64054
Requeued flit 64054
Received nack credit for flit 90910
Requeued flit 90910
5
2
Received nack credit for flit 59501
Requeued flit 59501
Received nack credit for flit 74720
Requeued flit 74720
1
1
6
Received nack credit for flit 81342
Requeued flit 81342
2
Received nack credit for flit 91706
Requeued flit 91706
Received nack credit for flit 72407
Requeued flit 72407
7
Received nack credit for flit 89073
Requeued flit 89073
2
6
2
Received nack credit for flit 89585
Requeued flit 89585
Received nack credit for flit 49955
Requeued flit 49955
Received nack credit for flit 54364
Requeued flit 54364
Received nack credit for flit 91920
Requeued flit 91920
1
Received nack credit for flit 70598
Requeued flit 70598
2
3
6
2
Received nack credit for flit 83586
Requeued flit 83586
Received nack credit for flit 90091
Requeued flit 90091
Received nack credit for flit 72091
Requeued flit 72091
2
Received nack credit for flit 67548
Requeued flit 67548
Received nack credit for flit 70841
Requeued flit 70841
1
2
Received nack credit for flit 83603
Requeued flit 83603
5
Received nack credit for flit 83354
Requeued flit 83354
6
1
Received nack credit for flit 50313
Requeued flit 50313
Received nack credit for flit 53754
Requeued flit 53754
1
Received nack credit for flit 81679
Requeued flit 81679
2
1
Received nack credit for flit 94379
Requeued flit 94379
Received nack credit for flit 80977
Requeued flit 80977
Received nack credit for flit 83757
Requeued flit 83757
1
1
4
Received nack credit for flit 81893
Requeued flit 81893
3
Received nack credit for flit 74309
Requeued flit 74309
Received nack credit for flit 60046
Requeued flit 60046
Received nack credit for flit 55714
Requeued flit 55714
5
9
Received nack credit for flit 53226
Requeued flit 53226
2
1
Received nack credit for flit 41434
Requeued flit 41434
Received nack credit for flit 91263
Requeued flit 91263
Received nack credit for flit 73592
Requeued flit 73592
1
2
4
Received nack credit for flit 86468
Requeued flit 86468
3
Received nack credit for flit 87004
Requeued flit 87004
Received nack credit for flit 78708
Requeued flit 78708
Received nack credit for flit 62484
Requeued flit 62484
2
Received nack credit for flit 96010
Requeued flit 96010
3
Received nack credit for flit 80707
Requeued flit 80707
3
1
1
Received nack credit for flit 60806
Requeued flit 60806
Received nack credit for flit 97756
Requeued flit 97756
Received nack credit for flit 94660
Requeued flit 94660
1
1
2
1
Received nack credit for flit 96644
Requeued flit 96644
Received nack credit for flit 86162
Requeued flit 86162
Received nack credit for flit 82647
Requeued flit 82647
1
3
Received nack credit for flit 95230
Requeued flit 95230
Received nack credit for flit 75710
Requeued flit 75710
Received nack credit for flit 57823
Requeued flit 57823
1
7
Received nack credit for flit 87960
Requeued flit 87960
6
5
Received nack credit for flit 76242
Requeued flit 76242
1
Received nack credit for flit 56054
Requeued flit 56054
Received nack credit for flit 79658
Requeued flit 79658
1
Received nack credit for flit 99586
Requeued flit 99586
7
2
3
Received nack credit for flit 99865
Requeued flit 99865
Received nack credit for flit 53693
Requeued flit 53693
Received nack credit for flit 96900
Requeued flit 96900
4
Received nack credit for flit 67801
Requeued flit 67801
Received nack credit for flit 54093
Requeued flit 54093
11
Received nack credit for flit 42656
Requeued flit 42656
1
1
Received nack credit for flit 77672
Requeued flit 77672
Received nack credit for flit 87400
Requeued flit 87400
2
3
Received nack credit for flit 101460
Requeued flit 101460
Received nack credit for flit 70158
Requeued flit 70158
5
Received nack credit for flit 87453
Requeued flit 87453
3
Received nack credit for flit 70349
Requeued flit 70349
12
3
Received nack credit for flit 42057
Requeued flit 42057
Received nack credit for flit 79929
Requeued flit 79929
3
1
1
1
Received nack credit for flit 103304
Requeued flit 103304
Received nack credit for flit 102582
Requeued flit 102582
Received nack credit for flit 79298
Requeued flit 79298
Received nack credit for flit 88066
Requeued flit 88066
1
12
4
1
6
Received nack credit for flit 79734
Requeued flit 79734
Received nack credit for flit 72124
Requeued flit 72124
7
Received nack credit for flit 45891
Requeued flit 45891
Received nack credit for flit 87830
Requeued flit 87830
1
Received nack credit for flit 83293
Requeued flit 83293
Received nack credit for flit 81008
Requeued flit 81008
Received nack credit for flit 101953
Requeued flit 101953
3
Received nack credit for flit 60743
Requeued flit 60743
4
5
1
1
Received nack credit for flit 81900
Requeued flit 81900
Received nack credit for flit 99803
Requeued flit 99803
1
2
Received nack credit for flit 105181
Requeued flit 105181
Received nack credit for flit 105169
Requeued flit 105169
Received nack credit for flit 92376
Requeued flit 92376
Received nack credit for flit 94682
Requeued flit 94682
8
4
2
Received nack credit for flit 49500
Requeued flit 49500
Received nack credit for flit 61489
Requeued flit 61489
Received nack credit for flit 69193
Requeued flit 69193
1
Received nack credit for flit 106549
Requeued flit 106549
1
Received nack credit for flit 107542
Requeued flit 107542
1
Received nack credit for flit 92403
Requeued flit 92403
4
5
Received nack credit for flit 86898
Requeued flit 86898
8
Received nack credit for flit 89746
Requeued flit 89746
5
Received nack credit for flit 68576
Requeued flit 68576
5
7
Received nack credit for flit 63098
Requeued flit 63098
5
Received nack credit for flit 69491
Requeued flit 69491
Received nack credit for flit 68182
Requeued flit 68182
Received nack credit for flit 61877
Requeued flit 61877
4
2
1
Received nack credit for flit 69747
Requeued flit 69747
Received nack credit for flit 74151
Requeued flit 74151
Received nack credit for flit 84814
Requeued flit 84814
3
1
2
Received nack credit for flit 110167
Requeued flit 110167
1
Received nack credit for flit 100084
Requeued flit 100084
1
1
Received nack credit for flit 110476
Requeued flit 110476
Received nack credit for flit 110729
Requeued flit 110729
2
Received nack credit for flit 110909
Requeued flit 110909
Received nack credit for flit 110923
Requeued flit 110923
1
Received nack credit for flit 98619
Requeued flit 98619
Received nack credit for flit 100137
Requeued flit 100137
3
8
Received nack credit for flit 75302
Requeued flit 75302
Received nack credit for flit 79704
Requeued flit 79704
2
6
1
7
Received nack credit for flit 102295
Requeued flit 102295
Received nack credit for flit 64209
Requeued flit 64209
Received nack credit for flit 95878
Requeued flit 95878
5
Received nack credit for flit 62196
Requeued flit 62196
Received nack credit for flit 87676
Requeued flit 87676
6
9
Received nack credit for flit 63760
Requeued flit 63760
Received nack credit for flit 51886
Requeued flit 51886
10
4
Received nack credit for flit 49809
Requeued flit 49809
2
Received nack credit for flit 61107
Requeued flit 61107
2
Received nack credit for flit 73586
Requeued flit 73586
Received nack credit for flit 102355
Requeued flit 102355
4
4
1
Received nack credit for flit 100086
Requeued flit 100086
Received nack credit for flit 95455
Requeued flit 95455
Received nack credit for flit 114693
Requeued flit 114693
1
1
1
Received nack credit for flit 115088
Requeued flit 115088
3
6
Received nack credit for flit 115301
Requeued flit 115301
Received nack credit for flit 115283
Requeued flit 115283
Received nack credit for flit 101183
Requeued flit 101183
Received nack credit for flit 64202
Requeued flit 64202
1
8
4
Received nack credit for flit 91481
Requeued flit 91481
Received nack credit for flit 63110
Requeued flit 63110
2
Received nack credit for flit 94809
Requeued flit 94809
Received nack credit for flit 101437
Requeued flit 101437
4
2
2
Received nack credit for flit 103075
Requeued flit 103075
Received nack credit for flit 102473
Requeued flit 102473
Received nack credit for flit 96970
Requeued flit 96970
2
2
Received nack credit for flit 89569
Requeued flit 89569
Received nack credit for flit 76484
Requeued flit 76484
3
Received nack credit for flit 112447
Requeued flit 112447
1
3
Received nack credit for flit 92869
Requeued flit 92869
1
Received nack credit for flit 77160
Requeued flit 77160
Received nack credit for flit 102186
Requeued flit 102186
5
1
1
Received nack credit for flit 66658
Requeued flit 66658
6
Received nack credit for flit 100370
Requeued flit 100370
Received nack credit for flit 114612
Requeued flit 114612
2
1
Received nack credit for flit 59417
Requeued flit 59417
2
Received nack credit for flit 118805
Requeued flit 118805
Received nack credit for flit 94885
Requeued flit 94885
1
6
Received nack credit for flit 77812
Requeued flit 77812
2
6
3
Received nack credit for flit 117965
Requeued flit 117965
Received nack credit for flit 98924
Requeued flit 98924
Received nack credit for flit 98693
Requeued flit 98693
3
Received nack credit for flit 63955
Requeued flit 63955
3
Received nack credit for flit 91233
Requeued flit 91233
Received nack credit for flit 116940
Requeued flit 116940
9
1
2
Received nack credit for flit 59434
Requeued flit 59434
7
1
3
Received nack credit for flit 120716
Requeued flit 120716
1
Received nack credit for flit 108325
Requeued flit 108325
Received nack credit for flit 79655
Requeued flit 79655
Received nack credit for flit 63794
Requeued flit 63794
Received nack credit for flit 73592
Requeued flit 73592
4
4
Received nack credit for flit 120983
Requeued flit 120983
Received nack credit for flit 79858
Requeued flit 79858
2
1
Received nack credit for flit 68148
Requeued flit 68148
4
7
9
2
4
Received nack credit for flit 117158
Requeued flit 117158
Received nack credit for flit 103069
Requeued flit 103069
Received nack credit for flit 71840
Requeued flit 71840
Received nack credit for flit 60970
Requeued flit 60970
Received nack credit for flit 52842
Requeued flit 52842
1
Received nack credit for flit 69450
Requeued flit 69450
Received nack credit for flit 107179
Requeued flit 107179
Received nack credit for flit 118353
Requeued flit 118353
1
1
Received nack credit for flit 122173
Requeued flit 122173
Received nack credit for flit 122324
Requeued flit 122324
1
Received nack credit for flit 98397
Requeued flit 98397
4
Received nack credit for flit 104919
Requeued flit 104919
4
4
2
Received nack credit for flit 107814
Requeued flit 107814
Received nack credit for flit 81741
Requeued flit 81741
Received nack credit for flit 99087
Requeued flit 99087
1
1
Received nack credit for flit 107045
Requeued flit 107045
7
Received nack credit for flit 118741
Requeued flit 118741
Received nack credit for flit 90136
Requeued flit 90136
4
3
Received nack credit for flit 95432
Requeued flit 95432
3
4
Received nack credit for flit 103551
Requeued flit 103551
Received nack credit for flit 79130
Requeued flit 79130
2
Received nack credit for flit 72734
Requeued flit 72734
4
Received nack credit for flit 112537
Requeued flit 112537
1
Received nack credit for flit 102933
Requeued flit 102933
3
Received nack credit for flit 125510
Requeued flit 125510
7
Received nack credit for flit 120477
Requeued flit 120477
4
Received nack credit for flit 85369
Requeued flit 85369
Received nack credit for flit 74846
Requeued flit 74846
6
2
Received nack credit for flit 123709
Requeued flit 123709
Received nack credit for flit 99342
Requeued flit 99342
2
Received nack credit for flit 100493
Requeued flit 100493
1
3
Received nack credit for flit 107202
Requeued flit 107202
Received nack credit for flit 77776
Requeued flit 77776
11
Received nack credit for flit 64398
Requeued flit 64398
1
Received nack credit for flit 103799
Requeued flit 103799
2
5
Received nack credit for flit 125364
Requeued flit 125364
1
1
Received nack credit for flit 75210
Requeued flit 75210
3
3
1
7
Received nack credit for flit 113637
Requeued flit 113637
Received nack credit for flit 110646
Requeued flit 110646
Received nack credit for flit 105759
Requeued flit 105759
Received nack credit for flit 129685
Requeued flit 129685
Received nack credit for flit 82004
Requeued flit 82004
4
7
Received nack credit for flit 113038
Requeued flit 113038
3
Received nack credit for flit 74393
Requeued flit 74393
7
4
5
Received nack credit for flit 87420
Requeued flit 87420
1
1
5
Received nack credit for flit 72470
Requeued flit 72470
Received nack credit for flit 75869
Requeued flit 75869
3
Received nack credit for flit 85785
Requeued flit 85785
Received nack credit for flit 117370
Requeued flit 117370
Received nack credit for flit 72261
Requeued flit 72261
Received nack credit for flit 117638
Requeued flit 117638
Received nack credit for flit 118759
Requeued flit 118759
2
Received nack credit for flit 117218
Requeued flit 117218
1
Received nack credit for flit 131660
Requeued flit 131660
1
1
7
Received nack credit for flit 105833
Requeued flit 105833
Received nack credit for flit 131623
Requeued flit 131623
1
5
Received nack credit for flit 71510
Requeued flit 71510
1
Received nack credit for flit 119570
Requeued flit 119570
Received nack credit for flit 84866
Requeued flit 84866
Received nack credit for flit 126730
Requeued flit 126730
3
2
Received nack credit for flit 113220
Requeued flit 113220
3
Received nack credit for flit 90764
Requeued flit 90764
6
Received nack credit for flit 131700
Requeued flit 131700
3
Received nack credit for flit 85238
Requeued flit 85238
Received nack credit for flit 127405
Requeued flit 127405
6
5
6
Received nack credit for flit 75158
Requeued flit 75158
Received nack credit for flit 128896
Requeued flit 128896
Received nack credit for flit 65547
Requeued flit 65547
9
1
Received nack credit for flit 67078
Requeued flit 67078
2
7
Received nack credit for flit 122083
Requeued flit 122083
Received nack credit for flit 68161
Requeued flit 68161
Received nack credit for flit 118564
Requeued flit 118564
6
2
Received nack credit for flit 87504
Requeued flit 87504
4
Received nack credit for flit 123328
Requeued flit 123328
4
1
Received nack credit for flit 82059
Requeued flit 82059
2
Received nack credit for flit 73565
Requeued flit 73565
Received nack credit for flit 120754
Requeued flit 120754
2
4
Received nack credit for flit 87445
Requeued flit 87445
4
Received nack credit for flit 135545
Requeued flit 135545
1
5
Received nack credit for flit 120163
Requeued flit 120163
Received nack credit for flit 88775
Requeued flit 88775
Received nack credit for flit 115077
Requeued flit 115077
Received nack credit for flit 103522
Requeued flit 103522
4
Received nack credit for flit 116371
Requeued flit 116371
1
Received nack credit for flit 111644
Requeued flit 111644
5
Received nack credit for flit 116646
Requeued flit 116646
9
Received nack credit for flit 64981
Requeued flit 64981
1
4
Received nack credit for flit 138322
Requeued flit 138322
Received nack credit for flit 120066
Requeued flit 120066
1
4
6
1
1
1
1
Received nack credit for flit 122805
Requeued flit 122805
Received nack credit for flit 117694
Requeued flit 117694
Received nack credit for flit 138857
Requeued flit 138857
Received nack credit for flit 139267
Requeued flit 139267
Received nack credit for flit 118752
Requeued flit 118752
Received nack credit for flit 114208
Requeued flit 114208
1
Received nack credit for flit 139123
Requeued flit 139123
Received nack credit for flit 137668
Requeued flit 137668
7
Received nack credit for flit 101988
Requeued flit 101988
1
1
3
Received nack credit for flit 126617
Requeued flit 126617
Received nack credit for flit 139950
Requeued flit 139950
5
Received nack credit for flit 79387
Requeued flit 79387
1
Received nack credit for flit 75819
Requeued flit 75819
6
2
Received nack credit for flit 128145
Requeued flit 128145
Received nack credit for flit 109986
Requeued flit 109986
9
Received nack credit for flit 125961
Requeued flit 125961
Received nack credit for flit 76957
Requeued flit 76957
1
Received nack credit for flit 116019
Requeued flit 116019
1
1
Received nack credit for flit 134310
Requeued flit 134310
1
Received nack credit for flit 142033
Requeued flit 142033
2
Received nack credit for flit 128269
Requeued flit 128269
Received nack credit for flit 98084
Requeued flit 98084
3
Received nack credit for flit 127854
Requeued flit 127854
4
Received nack credit for flit 120249
Requeued flit 120249
2
Received nack credit for flit 138320
Requeued flit 138320
3
4
1
Received nack credit for flit 139102
Requeued flit 139102
Received nack credit for flit 114120
Requeued flit 114120
Received nack credit for flit 144342
Requeued flit 144342
1
1
Received nack credit for flit 120356
Requeued flit 120356
Received nack credit for flit 139756
Requeued flit 139756
6
1
Received nack credit for flit 83580
Requeued flit 83580
4
Received nack credit for flit 125727
Requeued flit 125727
Received nack credit for flit 144780
Requeued flit 144780
2
Received nack credit for flit 139807
Requeued flit 139807
1
1
Received nack credit for flit 144530
Requeued flit 144530
1
Received nack credit for flit 147164
Requeued flit 147164
Received nack credit for flit 147446
Requeued flit 147446
1
7
5
4
5
Received nack credit for flit 135416
Requeued flit 135416
Received nack credit for flit 83642
Requeued flit 83642
Received nack credit for flit 117423
Requeued flit 117423
Received nack credit for flit 94961
Requeued flit 94961
Received nack credit for flit 80225
Requeued flit 80225
6
1
1
Received nack credit for flit 108270
Requeued flit 108270
Received nack credit for flit 135088
Requeued flit 135088
2
Received nack credit for flit 124492
Requeued flit 124492
Received nack credit for flit 103178
Requeued flit 103178
1
1
1
1
Received nack credit for flit 145084
Requeued flit 145084
1
1
Received nack credit for flit 134651
Requeued flit 134651
Received nack credit for flit 149354
Requeued flit 149354
Received nack credit for flit 144805
Requeued flit 144805
Received nack credit for flit 124303
Requeued flit 124303
6
Received nack credit for flit 149345
Requeued flit 149345
Received nack credit for flit 88052
Requeued flit 88052
1
1
Received nack credit for flit 145911
Requeued flit 145911
4
Received nack credit for flit 125843
Requeued flit 125843
Received nack credit for flit 123282
Requeued flit 123282
2
1
Received nack credit for flit 146550
Requeued flit 146550
Received nack credit for flit 146060
Requeued flit 146060
4
5
Received nack credit for flit 109599
Requeued flit 109599
1
2
3
Received nack credit for flit 124146
Requeued flit 124146
Received nack credit for flit 134398
Requeued flit 134398
Received nack credit for flit 151647
Requeued flit 151647
4
Received nack credit for flit 112313
Requeued flit 112313
Received nack credit for flit 126837
Requeued flit 126837
8
2
Received nack credit for flit 112447
Requeued flit 112447
2
7
3
1
Received nack credit for flit 106277
Requeued flit 106277
4
Received nack credit for flit 98064
Requeued flit 98064
Received nack credit for flit 79571
Requeued flit 79571
Received nack credit for flit 105825
Requeued flit 105825
1
3
1
Received nack credit for flit 152706
Requeued flit 152706
Received nack credit for flit 98663
Requeued flit 98663
Received nack credit for flit 152928
Requeued flit 152928
Received nack credit for flit 100742
Requeued flit 100742
Received nack credit for flit 152954
Requeued flit 152954
10
Received nack credit for flit 77443
Requeued flit 77443
7
1
Received nack credit for flit 117233
Requeued flit 117233
Received nack credit for flit 132940
Requeued flit 132940
6
4
Received nack credit for flit 119872
Requeued flit 119872
Received nack credit for flit 132056
Requeued flit 132056
2
6
1
Received nack credit for flit 109102
Requeued flit 109102
Received nack credit for flit 149846
Requeued flit 149846
Received nack credit for flit 104107
Requeued flit 104107
5
Received nack credit for flit 135067
Requeued flit 135067
4
2
Received nack credit for flit 114366
Requeued flit 114366
5
Received nack credit for flit 135910
Requeued flit 135910
1
Received nack credit for flit 136506
Requeued flit 136506
Received nack credit for flit 156764
Requeued flit 156764
4
3
Received nack credit for flit 93564
Requeued flit 93564
2
Received nack credit for flit 98026
Requeued flit 98026
5
Received nack credit for flit 131097
Requeued flit 131097
6
1
Received nack credit for flit 87078
Requeued flit 87078
Received nack credit for flit 122735
Requeued flit 122735
Received nack credit for flit 133518
Requeued flit 133518
2
6
Received nack credit for flit 110336
Requeued flit 110336
Received nack credit for flit 98924
Requeued flit 98924
5
3
Received nack credit for flit 141970
Requeued flit 141970
Received nack credit for flit 138039
Requeued flit 138039
1
Received nack credit for flit 134335
Requeued flit 134335
1
2
5
4
Received nack credit for flit 131497
Requeued flit 131497
Received nack credit for flit 159614
Requeued flit 159614
6
2
1
Received nack credit for flit 88101
Requeued flit 88101
Received nack credit for flit 90996
Requeued flit 90996
Received nack credit for flit 106210
Requeued flit 106210
6
1
Received nack credit for flit 156816
Requeued flit 156816
Received nack credit for flit 160061
Requeued flit 160061
7
Received nack credit for flit 137206
Requeued flit 137206
3
Received nack credit for flit 87037
Requeued flit 87037
Received nack credit for flit 92044
Requeued flit 92044
6
2
Received nack credit for flit 100419
Requeued flit 100419
4
3
Received nack credit for flit 82155
Requeued flit 82155
Received nack credit for flit 144069
Requeued flit 144069
1
Received nack credit for flit 155120
Requeued flit 155120
Received nack credit for flit 152636
Requeued flit 152636
1
2
Received nack credit for flit 136888
Requeued flit 136888
Received nack credit for flit 157532
Requeued flit 157532
Received nack credit for flit 143665
Requeued flit 143665
3
1
Received nack credit for flit 139451
Requeued flit 139451
Received nack credit for flit 111735
Requeued flit 111735
6
Received nack credit for flit 89316
Requeued flit 89316
1
Received nack credit for flit 137548
Requeued flit 137548
1
2
3
Received nack credit for flit 138676
Requeued flit 138676
1
Received nack credit for flit 135774
Requeued flit 135774
1
Received nack credit for flit 137519
Requeued flit 137519
1
10
Received nack credit for flit 153317
Requeued flit 153317
Received nack credit for flit 164027
Requeued flit 164027
3
Received nack credit for flit 81478
Requeued flit 81478
Received nack credit for flit 164004
Requeued flit 164004
Received nack credit for flit 147416
Requeued flit 147416
4
3
7
Received nack credit for flit 93148
Requeued flit 93148
2
Received nack credit for flit 88413
Requeued flit 88413
Received nack credit for flit 111531
Requeued flit 111531
5
Received nack credit for flit 158904
Requeued flit 158904
4
Received nack credit for flit 160446
Requeued flit 160446
2
Received nack credit for flit 90540
Requeued flit 90540
7
Received nack credit for flit 132312
Requeued flit 132312
Received nack credit for flit 115174
Requeued flit 115174
1
6
Received nack credit for flit 166474
Requeued flit 166474
7
2
Received nack credit for flit 82825
Requeued flit 82825
Received nack credit for flit 90911
Requeued flit 90911
Received nack credit for flit 104394
Requeued flit 104394
8
1
Received nack credit for flit 140150
Requeued flit 140150
Received nack credit for flit 167388
Requeued flit 167388
2
Received nack credit for flit 118413
Requeued flit 118413
1
8
1
Received nack credit for flit 144922
Requeued flit 144922
Received nack credit for flit 76854
Requeued flit 76854
Received nack credit for flit 143721
Requeued flit 143721
2
Received nack credit for flit 140634
Requeued flit 140634
1
Received nack credit for flit 146739
Requeued flit 146739
3
1
Received nack credit for flit 102577
Requeued flit 102577
Received nack credit for flit 145207
Requeued flit 145207
3
1
Received nack credit for flit 165232
Requeued flit 165232
1
Received nack credit for flit 151420
Requeued flit 151420
3
1
Received nack credit for flit 169866
Requeued flit 169866
3
Received nack credit for flit 162802
Requeued flit 162802
1
1
1
Received nack credit for flit 163452
Requeued flit 163452
Received nack credit for flit 164356
Requeued flit 164356
4
Received nack credit for flit 144916
Requeued flit 144916
Received nack credit for flit 138606
Requeued flit 138606
Received nack credit for flit 170239
Requeued flit 170239
Received nack credit for flit 95422
Requeued flit 95422
1
4
1
Received nack credit for flit 147494
Requeued flit 147494
1
Received nack credit for flit 118764
Requeued flit 118764
Received nack credit for flit 146157
Requeued flit 146157
Received nack credit for flit 146742
Requeued flit 146742
2
1
2
Received nack credit for flit 166423
Requeued flit 166423
Received nack credit for flit 147393
Requeued flit 147393
Received nack credit for flit 110462
Requeued flit 110462
8
Received nack credit for flit 102282
Requeued flit 102282
7
3
Received nack credit for flit 110843
Requeued flit 110843
Received nack credit for flit 119477
Requeued flit 119477
5
Received nack credit for flit 130303
Requeued flit 130303
1
4
Received nack credit for flit 161654
Requeued flit 161654
1
Received nack credit for flit 169817
Requeued flit 169817
Received nack credit for flit 174217
Requeued flit 174217
3
1
Received nack credit for flit 144025
Requeued flit 144025
3
Received nack credit for flit 157451
Requeued flit 157451
Received nack credit for flit 175378
Requeued flit 175378
5
4
Received nack credit for flit 93414
Requeued flit 93414
3
Received nack credit for flit 145525
Requeued flit 145525
Received nack credit for flit 113607
Requeued flit 113607
4
7
1
Received nack credit for flit 126129
Requeued flit 126129
Received nack credit for flit 153351
Requeued flit 153351
Received nack credit for flit 96275
Requeued flit 96275
1
3
2
Received nack credit for flit 145018
Requeued flit 145018
Received nack credit for flit 116014
Requeued flit 116014
Received nack credit for flit 129545
Requeued flit 129545
4
Received nack credit for flit 90400
Requeued flit 90400
1
1
6
Received nack credit for flit 155070
Requeued flit 155070
Received nack credit for flit 178681
Requeued flit 178681
Received nack credit for flit 102204
Requeued flit 102204
6
3
Received nack credit for flit 125216
Requeued flit 125216
3
2
Received nack credit for flit 172625
Requeued flit 172625
3
2
Received nack credit for flit 149357
Requeued flit 149357
Received nack credit for flit 179365
Requeued flit 179365
Received nack credit for flit 172765
Requeued flit 172765
Received nack credit for flit 141610
Requeued flit 141610
5
Received nack credit for flit 163196
Requeued flit 163196
1
Received nack credit for flit 156630
Requeued flit 156630
3
Received nack credit for flit 174949
Requeued flit 174949
3
3
2
Received nack credit for flit 116736
Requeued flit 116736
Received nack credit for flit 131110
Requeued flit 131110
Received nack credit for flit 149532
Requeued flit 149532
1
5
Received nack credit for flit 175935
Requeued flit 175935
2
1
Received nack credit for flit 172403
Requeued flit 172403
3
3
6
Received nack credit for flit 97897
Requeued flit 97897
Received nack credit for flit 158922
Requeued flit 158922
8
Received nack credit for flit 178221
Requeued flit 178221
1
Received nack credit for flit 176391
Requeued flit 176391
Received nack credit for flit 111440
Requeued flit 111440
Received nack credit for flit 88414
Requeued flit 88414
Received nack credit for flit 157099
Requeued flit 157099
4
1
Received nack credit for flit 97275
Requeued flit 97275
Received nack credit for flit 142843
Requeued flit 142843
2
2
Received nack credit for flit 162094
Requeued flit 162094
1
Received nack credit for flit 175675
Requeued flit 175675
5
Received nack credit for flit 181940
Requeued flit 181940
Received nack credit for flit 153047
Requeued flit 153047
8
1
1
Received nack credit for flit 112412
Requeued flit 112412
Received nack credit for flit 161097
Requeued flit 161097
Received nack credit for flit 184143
Requeued flit 184143
4
2
Received nack credit for flit 136964
Requeued flit 136964
Received nack credit for flit 148822
Requeued flit 148822
1
4
Received nack credit for flit 158936
Requeued flit 158936
1
Received nack credit for flit 105882
Requeued flit 105882
2
Received nack credit for flit 185242
Requeued flit 185242
Received nack credit for flit 138023
Requeued flit 138023
4
1
Received nack credit for flit 177204
Requeued flit 177204
Received nack credit for flit 149225
Requeued flit 149225
6
Received nack credit for flit 150905
Requeued flit 150905
1
Received nack credit for flit 163672
Requeued flit 163672
1
6
2
Received nack credit for flit 179502
Requeued flit 179502
Received nack credit for flit 90456
Requeued flit 90456
Received nack credit for flit 159261
Requeued flit 159261
3
3
Received nack credit for flit 180104
Requeued flit 180104
Received nack credit for flit 125978
Requeued flit 125978
4
3
Received nack credit for flit 124460
Requeued flit 124460
Received nack credit for flit 165486
Requeued flit 165486
1
4
3
Received nack credit for flit 185163
Requeued flit 185163
Received nack credit for flit 167733
Requeued flit 167733
Received nack credit for flit 157424
Requeued flit 157424
1
4
Received nack credit for flit 169504
Requeued flit 169504
Received nack credit for flit 102174
Requeued flit 102174
6
Received nack credit for flit 100952
Requeued flit 100952
1
Received nack credit for flit 187370
Requeued flit 187370
1
Received nack credit for flit 172366
Requeued flit 172366
1
1
5
4
Received nack credit for flit 171091
Requeued flit 171091
Received nack credit for flit 171664
Requeued flit 171664
Received nack credit for flit 132339
Requeued flit 132339
Received nack credit for flit 182030
Requeued flit 182030
1
Received nack credit for flit 171733
Requeued flit 171733
5
4
7
Received nack credit for flit 125984
Requeued flit 125984
Received nack credit for flit 171604
Requeued flit 171604
Received nack credit for flit 110997
Requeued flit 110997
3
1
5
Received nack credit for flit 176326
Requeued flit 176326
5
Received nack credit for flit 171527
Requeued flit 171527
Received nack credit for flit 111531
Requeued flit 111531
Received nack credit for flit 174842
Requeued flit 174842
3
Received nack credit for flit 142103
Requeued flit 142103
1
1
1
2
1
Received nack credit for flit 187181
Requeued flit 187181
Received nack credit for flit 172115
Requeued flit 172115
Received nack credit for flit 172960
Requeued flit 172960
1
Received nack credit for flit 144383
Requeued flit 144383
Received nack credit for flit 189435
Requeued flit 189435
1
3
Received nack credit for flit 176163
Requeued flit 176163
Received nack credit for flit 176244
Requeued flit 176244
Received nack credit for flit 182063
Requeued flit 182063
3
2
1
Received nack credit for flit 123624
Requeued flit 123624
Received nack credit for flit 166177
Requeued flit 166177
Received nack credit for flit 189852
Requeued flit 189852
4
1
Received nack credit for flit 115149
Requeued flit 115149
Received nack credit for flit 182891
Requeued flit 182891
3
1
Received nack credit for flit 144243
Requeued flit 144243
Received nack credit for flit 187667
Requeued flit 187667
1
5
6
Received nack credit for flit 187327
Requeued flit 187327
Received nack credit for flit 164167
Requeued flit 164167
1
Received nack credit for flit 103919
Requeued flit 103919
10
1
Received nack credit for flit 176230
Requeued flit 176230
Received nack credit for flit 91850
Requeued flit 91850
Received nack credit for flit 176382
Requeued flit 176382
6
Received nack credit for flit 135100
Requeued flit 135100
1
5
8
Received nack credit for flit 154082
Requeued flit 154082
Received nack credit for flit 110828
Requeued flit 110828
Received nack credit for flit 150963
Requeued flit 150963
2
5
Received nack credit for flit 192365
Requeued flit 192365
Received nack credit for flit 188192
Requeued flit 188192
6
5
Received nack credit for flit 134468
Requeued flit 134468
Received nack credit for flit 153167
Requeued flit 153167
1
7
Received nack credit for flit 180162
Requeued flit 180162
3
Received nack credit for flit 106322
Requeued flit 106322
Received nack credit for flit 134355
Requeued flit 134355
6
Received nack credit for flit 101000
Requeued flit 101000
1
Received nack credit for flit 179574
Requeued flit 179574
6
6
Received nack credit for flit 155413
Requeued flit 155413
Received nack credit for flit 147036
Requeued flit 147036
1
Received nack credit for flit 151708
Requeued flit 151708
3
1
1
Received nack credit for flit 177097
Requeued flit 177097
Received nack credit for flit 194450
Requeued flit 194450
Received nack credit for flit 201895
Requeued flit 201895
3
1
Received nack credit for flit 174636
Requeued flit 174636
2
Received nack credit for flit 192466
Requeued flit 192466
4
Received nack credit for flit 132471
Requeued flit 132471
Received nack credit for flit 113712
Requeued flit 113712
1
4
Received nack credit for flit 182487
Requeued flit 182487
10
6
Received nack credit for flit 95931
Requeued flit 95931
Received nack credit for flit 144425
Requeued flit 144425
1
Received nack credit for flit 197602
Requeued flit 197602
Received nack credit for flit 203927
Requeued flit 203927
1
11
8
4
5
Received nack credit for flit 87965
Requeued flit 87965
Received nack credit for flit 159123
Requeued flit 159123
Received nack credit for flit 131217
Requeued flit 131217
Received nack credit for flit 140418
Requeued flit 140418
Received nack credit for flit 121802
Requeued flit 121802
3
Received nack credit for flit 132302
Requeued flit 132302
1
1
1
Received nack credit for flit 199622
Requeued flit 199622
4
Received nack credit for flit 191240
Requeued flit 191240
1
1
Received nack credit for flit 200366
Requeued flit 200366
Received nack credit for flit 149107
Requeued flit 149107
4
Received nack credit for flit 186278
Requeued flit 186278
Received nack credit for flit 205626
Requeued flit 205626
Received nack credit for flit 112345
Requeued flit 112345
1
2
Received nack credit for flit 190384
Requeued flit 190384
Received nack credit for flit 160727
Requeued flit 160727
1
Received nack credit for flit 200393
Requeued flit 200393
1
1
5
5
Received nack credit for flit 154778
Requeued flit 154778
Received nack credit for flit 158642
Requeued flit 158642
Received nack credit for flit 177382
Requeued flit 177382
Received nack credit for flit 135765
Requeued flit 135765
3
Received nack credit for flit 130577
Requeued flit 130577
3
1
4
6
5
Received nack credit for flit 142408
Requeued flit 142408
Received nack credit for flit 149898
Requeued flit 149898
8
Received nack credit for flit 196928
Requeued flit 196928
Received nack credit for flit 124943
Requeued flit 124943
Received nack credit for flit 112250
Requeued flit 112250
Received nack credit for flit 167535
Requeued flit 167535
4
4
Received nack credit for flit 179351
Requeued flit 179351
Received nack credit for flit 115065
Requeued flit 115065
1
4
2
Received nack credit for flit 204212
Requeued flit 204212
Received nack credit for flit 193504
Requeued flit 193504
Received nack credit for flit 170372
Requeued flit 170372
1
Received nack credit for flit 157020
Requeued flit 157020
1
5
Received nack credit for flit 192181
Requeued flit 192181
4
3
Received nack credit for flit 146124
Requeued flit 146124
Received nack credit for flit 120086
Requeued flit 120086
Received nack credit for flit 137993
Requeued flit 137993
1
2
Received nack credit for flit 162191
Requeued flit 162191
7
Received nack credit for flit 177934
Requeued flit 177934
3
1
Received nack credit for flit 115166
Requeued flit 115166
3
Received nack credit for flit 147670
Requeued flit 147670
Received nack credit for flit 200343
Requeued flit 200343
Received nack credit for flit 178101
Requeued flit 178101
2
3
Received nack credit for flit 207540
Requeued flit 207540
4
5
Received nack credit for flit 187630
Requeued flit 187630
Received nack credit for flit 181968
Requeued flit 181968
Received nack credit for flit 153717
Requeued flit 153717
2
Received nack credit for flit 158932
Requeued flit 158932
1
Received nack credit for flit 211735
Requeued flit 211735
1
Received nack credit for flit 200159
Requeued flit 200159
8
1
Received nack credit for flit 124350
Requeued flit 124350
7
2
Received nack credit for flit 195958
Requeued flit 195958
Received nack credit for flit 157424
Requeued flit 157424
Received nack credit for flit 208965
Requeued flit 208965
1
Received nack credit for flit 216683
Requeued flit 216683
1
11
Received nack credit for flit 198362
Requeued flit 198362
Received nack credit for flit 125241
Requeued flit 125241
6
1
Received nack credit for flit 181769
Requeued flit 181769
4
Received nack credit for flit 211855
Requeued flit 211855
9
Received nack credit for flit 160616
Requeued flit 160616
5
1
Received nack credit for flit 99400
Requeued flit 99400
1
2
3
Received nack credit for flit 204560
Requeued flit 204560
Received nack credit for flit 191531
Requeued flit 191531
Received nack credit for flit 198782
Requeued flit 198782
1
Received nack credit for flit 136763
Requeued flit 136763
Received nack credit for flit 159778
Requeued flit 159778
1
1
2
5
Received nack credit for flit 198703
Requeued flit 198703
Received nack credit for flit 198071
Requeued flit 198071
Received nack credit for flit 214404
Requeued flit 214404
2
Received nack credit for flit 115596
Requeued flit 115596
Received nack credit for flit 212790
Requeued flit 212790
Received nack credit for flit 205420
Requeued flit 205420
3
Received nack credit for flit 137248
Requeued flit 137248
2
Received nack credit for flit 168925
Requeued flit 168925
3
Received nack credit for flit 139441
Requeued flit 139441
8
5
5
1
Received nack credit for flit 181149
Requeued flit 181149
Received nack credit for flit 185953
Requeued flit 185953
Received nack credit for flit 203236
Requeued flit 203236
Received nack credit for flit 151680
Requeued flit 151680
3
6
3
Received nack credit for flit 115102
Requeued flit 115102
Received nack credit for flit 195043
Requeued flit 195043
Received nack credit for flit 114577
Requeued flit 114577
2
Received nack credit for flit 164691
Requeued flit 164691
7
Received nack credit for flit 141477
Requeued flit 141477
4
2
1
Received nack credit for flit 158184
Requeued flit 158184
7
Received nack credit for flit 204483
Requeued flit 204483
Received nack credit for flit 203503
Requeued flit 203503
Received nack credit for flit 113348
Requeued flit 113348
5
Received nack credit for flit 121651
Requeued flit 121651
2
Received nack credit for flit 169996
Requeued flit 169996
6
4
6
Received nack credit for flit 123548
Requeued flit 123548
Received nack credit for flit 122571
Requeued flit 122571
Received nack credit for flit 131488
Requeued flit 131488
6
3
3
1
Received nack credit for flit 159667
Requeued flit 159667
5
Received nack credit for flit 213085
Requeued flit 213085
Received nack credit for flit 194986
Requeued flit 194986
Received nack credit for flit 171337
Requeued flit 171337
Received nack credit for flit 218196
Requeued flit 218196
5
5
3
3
Received nack credit for flit 197525
Requeued flit 197525
Received nack credit for flit 214506
Requeued flit 214506
7
Received nack credit for flit 191013
Requeued flit 191013
Received nack credit for flit 199922
Requeued flit 199922
Received nack credit for flit 124981
Requeued flit 124981
4
2
6
Received nack credit for flit 168000
Requeued flit 168000
Received nack credit for flit 195514
Requeued flit 195514
Received nack credit for flit 184977
Requeued flit 184977
2
4
Received nack credit for flit 143690
Requeued flit 143690
1
Received nack credit for flit 190079
Requeued flit 190079
Received nack credit for flit 206984
Requeued flit 206984
5
2
4
1
Received nack credit for flit 187893
Requeued flit 187893
Received nack credit for flit 145469
Requeued flit 145469
Received nack credit for flit 206795
Requeued flit 206795
Received nack credit for flit 139880
Requeued flit 139880
1
1
Received nack credit for flit 226844
Requeued flit 226844
1
Received nack credit for flit 166683
Requeued flit 166683
1
3
Received nack credit for flit 221806
Requeued flit 221806
Received nack credit for flit 202774
Requeued flit 202774
Received nack credit for flit 206775
Requeued flit 206775
3
5
Received nack credit for flit 222086
Requeued flit 222086
Received nack credit for flit 222464
Requeued flit 222464
1
1
Received nack credit for flit 212047
Requeued flit 212047
3
6
Received nack credit for flit 210640
Requeued flit 210640
3
Received nack credit for flit 218043
Requeued flit 218043
Received nack credit for flit 122527
Requeued flit 122527
4
Received nack credit for flit 121851
Requeued flit 121851
Received nack credit for flit 194710
Requeued flit 194710
1
1
3
Received nack credit for flit 213429
Requeued flit 213429
Received nack credit for flit 203820
Requeued flit 203820
Received nack credit for flit 205086
Requeued flit 205086
4
Received nack credit for flit 133539
Requeued flit 133539
1
Received nack credit for flit 228607
Requeued flit 228607
3
1
Received nack credit for flit 147789
Requeued flit 147789
Received nack credit for flit 174922
Requeued flit 174922
3
Received nack credit for flit 209487
Requeued flit 209487
5
4
1
Received nack credit for flit 161229
Requeued flit 161229
Received nack credit for flit 206677
Requeued flit 206677
Received nack credit for flit 214746
Requeued flit 214746
1
1
Received nack credit for flit 212453
Requeued flit 212453
Received nack credit for flit 166103
Requeued flit 166103
5
1
2
Received nack credit for flit 119440
Requeued flit 119440
Received nack credit for flit 216732
Requeued flit 216732
Received nack credit for flit 150027
Requeued flit 150027
1
1
Received nack credit for flit 216585
Requeued flit 216585
Received nack credit for flit 229790
Requeued flit 229790
5
4
Received nack credit for flit 126453
Requeued flit 126453
Received nack credit for flit 166301
Requeued flit 166301
4
Received nack credit for flit 134261
Requeued flit 134261
9
6
Received nack credit for flit 173726
Requeued flit 173726
Received nack credit for flit 155063
Requeued flit 155063
1
Received nack credit for flit 215821
Requeued flit 215821
1
1
6
Received nack credit for flit 216274
Requeued flit 216274
Received nack credit for flit 216939
Requeued flit 216939
Received nack credit for flit 198675
Requeued flit 198675
2
1
5
Received nack credit for flit 236301
Requeued flit 236301
8
Received nack credit for flit 218912
Requeued flit 218912
Received nack credit for flit 176349
Requeued flit 176349
Received nack credit for flit 176702
Requeued flit 176702
11
1
4
Received nack credit for flit 110296
Requeued flit 110296
Received nack credit for flit 220197
Requeued flit 220197
1
8
Received nack credit for flit 128061
Requeued flit 128061
Received nack credit for flit 116013
Requeued flit 116013
Received nack credit for flit 207572
Requeued flit 207572
4
Received nack credit for flit 178784
Requeued flit 178784
2
3
Received nack credit for flit 184420
Requeued flit 184420
Received nack credit for flit 175885
Requeued flit 175885
5
2
1
2
5
Received nack credit for flit 177898
Requeued flit 177898
Received nack credit for flit 232894
Requeued flit 232894
Received nack credit for flit 216013
Requeued flit 216013
Received nack credit for flit 203898
Requeued flit 203898
4
4
Received nack credit for flit 126938
Requeued flit 126938
Received nack credit for flit 210891
Requeued flit 210891
Received nack credit for flit 124478
Requeued flit 124478
3
5
Received nack credit for flit 152673
Requeued flit 152673
Received nack credit for flit 118430
Requeued flit 118430
2
2
Received nack credit for flit 163080
Requeued flit 163080
Received nack credit for flit 220142
Requeued flit 220142
1
1
Received nack credit for flit 220602
Requeued flit 220602
Received nack credit for flit 220505
Requeued flit 220505
2
Received nack credit for flit 157215
Requeued flit 157215
8
2
5
Received nack credit for flit 149245
Requeued flit 149245
1
Received nack credit for flit 169069
Requeued flit 169069
Received nack credit for flit 222532
Requeued flit 222532
Received nack credit for flit 221703
Requeued flit 221703
4
Received nack credit for flit 234134
Requeued flit 234134
3
2
Received nack credit for flit 135568
Requeued flit 135568
Received nack credit for flit 155503
Requeued flit 155503
3
5
5
Received nack credit for flit 235400
Requeued flit 235400
Received nack credit for flit 181734
Requeued flit 181734
Received nack credit for flit 172857
Requeued flit 172857
5
4
Received nack credit for flit 204242
Requeued flit 204242
Received nack credit for flit 177889
Requeued flit 177889
4
Received nack credit for flit 238622
Requeued flit 238622
4
4
4
3
Received nack credit for flit 180029
Requeued flit 180029
1
Received nack credit for flit 216176
Requeued flit 216176
3
Received nack credit for flit 143859
Requeued flit 143859
Received nack credit for flit 156666
Requeued flit 156666
Received nack credit for flit 185526
Requeued flit 185526
Received nack credit for flit 183162
Requeued flit 183162
1
Received nack credit for flit 182281
Requeued flit 182281
1
3
Received nack credit for flit 226012
Requeued flit 226012
Received nack credit for flit 225963
Requeued flit 225963
1
1
Received nack credit for flit 184404
Requeued flit 184404
Received nack credit for flit 241051
Requeued flit 241051
3
Received nack credit for flit 222372
Requeued flit 222372
5
1
3
5
Received nack credit for flit 123040
Requeued flit 123040
Received nack credit for flit 207074
Requeued flit 207074
Received nack credit for flit 219408
Requeued flit 219408
1
2
5
Received nack credit for flit 167882
Requeued flit 167882
Received nack credit for flit 227550
Requeued flit 227550
Received nack credit for flit 228088
Requeued flit 228088
Received nack credit for flit 215473
Requeued flit 215473
1
2
7
Received nack credit for flit 229060
Requeued flit 229060
5
Received nack credit for flit 189376
Requeued flit 189376
Received nack credit for flit 183588
Requeued flit 183588
Received nack credit for flit 129390
Requeued flit 129390
3
Received nack credit for flit 239425
Requeued flit 239425
4
1
Received nack credit for flit 175865
Requeued flit 175865
1
Received nack credit for flit 221145
Requeued flit 221145
Received nack credit for flit 223340
Requeued flit 223340
10
Received nack credit for flit 193590
Requeued flit 193590
1
Received nack credit for flit 247810
Requeued flit 247810
1
2
1
Received nack credit for flit 234825
Requeued flit 234825
Received nack credit for flit 162482
Requeued flit 162482
Received nack credit for flit 243379
Requeued flit 243379
1
2
Received nack credit for flit 187602
Requeued flit 187602
Received nack credit for flit 162068
Requeued flit 162068
2
4
2
Received nack credit for flit 189715
Requeued flit 189715
Received nack credit for flit 131863
Requeued flit 131863
1
Received nack credit for flit 241424
Requeued flit 241424
2
Received nack credit for flit 233291
Requeued flit 233291
2
1
2
Received nack credit for flit 231271
Requeued flit 231271
1
Received nack credit for flit 209164
Requeued flit 209164
Received nack credit for flit 213006
Requeued flit 213006
Received nack credit for flit 234543
Requeued flit 234543
1
2
Received nack credit for flit 193305
Requeued flit 193305
Received nack credit for flit 188620
Requeued flit 188620
9
Received nack credit for flit 196930
Requeued flit 196930
1
1
1
4
2
8
Received nack credit for flit 214878
Requeued flit 214878
Received nack credit for flit 233206
Requeued flit 233206
Received nack credit for flit 207917
Requeued flit 207917
Received nack credit for flit 225554
Requeued flit 225554
Received nack credit for flit 209757
Requeued flit 209757
Received nack credit for flit 228946
Requeued flit 228946
2
5
Received nack credit for flit 245193
Requeued flit 245193
Received nack credit for flit 243322
Requeued flit 243322
2
3
3
2
Received nack credit for flit 228305
Requeued flit 228305
Received nack credit for flit 150046
Requeued flit 150046
Received nack credit for flit 188475
Requeued flit 188475
Received nack credit for flit 196883
Requeued flit 196883
9
2
Received nack credit for flit 124632
Requeued flit 124632
Received nack credit for flit 191307
Requeued flit 191307
2
6
Received nack credit for flit 227609
Requeued flit 227609
1
Received nack credit for flit 127687
Requeued flit 127687
2
2
Received nack credit for flit 237367
Requeued flit 237367
2
Received nack credit for flit 226705
Requeued flit 226705
2
Received nack credit for flit 217989
Requeued flit 217989
Received nack credit for flit 228104
Requeued flit 228104
Received nack credit for flit 235602
Requeued flit 235602
1
1
Received nack credit for flit 253267
Requeued flit 253267
4
Received nack credit for flit 191701
Requeued flit 191701
Received nack credit for flit 197268
Requeued flit 197268
1
Received nack credit for flit 188498
Requeued flit 188498
1
Received nack credit for flit 237272
Requeued flit 237272
4
Received nack credit for flit 230440
Requeued flit 230440
2
4
3
2
Received nack credit for flit 164727
Requeued flit 164727
Received nack credit for flit 228145
Requeued flit 228145
Received nack credit for flit 163286
Requeued flit 163286
2
1
Received nack credit for flit 237571
Requeued flit 237571
Received nack credit for flit 248898
Requeued flit 248898
2
Received nack credit for flit 218235
Requeued flit 218235
3
Received nack credit for flit 197677
Requeued flit 197677
Received nack credit for flit 231549
Requeued flit 231549
5
1
Received nack credit for flit 184377
Requeued flit 184377
1
5
Received nack credit for flit 238375
Requeued flit 238375
Received nack credit for flit 220543
Requeued flit 220543
Received nack credit for flit 230061
Requeued flit 230061
1
Received nack credit for flit 245142
Requeued flit 245142
1
1
1
Received nack credit for flit 216971
Requeued flit 216971
Received nack credit for flit 245513
Requeued flit 245513
Received nack credit for flit 192651
Requeued flit 192651
3
4
Received nack credit for flit 237583
Requeued flit 237583
Received nack credit for flit 134167
Requeued flit 134167
2
Received nack credit for flit 166332
Requeued flit 166332
1
1
2
1
Received nack credit for flit 240178
Requeued flit 240178
Received nack credit for flit 220886
Requeued flit 220886
4
5
Received nack credit for flit 183344
Requeued flit 183344
Received nack credit for flit 236860
Requeued flit 236860
Received nack credit for flit 130924
Requeued flit 130924
Received nack credit for flit 230778
Requeued flit 230778
3
Received nack credit for flit 170594
Requeued flit 170594
3
4
Received nack credit for flit 202833
Requeued flit 202833
Received nack credit for flit 220823
Requeued flit 220823
1
Received nack credit for flit 198293
Requeued flit 198293
10
Received nack credit for flit 178527
Requeued flit 178527
7
Received nack credit for flit 222014
Requeued flit 222014
3
Received nack credit for flit 227090
Requeued flit 227090
2
2
Received nack credit for flit 242797
Requeued flit 242797
Received nack credit for flit 236613
Requeued flit 236613
1
4
Received nack credit for flit 243237
Requeued flit 243237
4
Received nack credit for flit 251945
Requeued flit 251945
Received nack credit for flit 222635
Requeued flit 222635
2
2
Received nack credit for flit 208399
Requeued flit 208399
Received nack credit for flit 164554
Requeued flit 164554
2
1
4
Received nack credit for flit 164669
Requeued flit 164669
1
Received nack credit for flit 218509
Requeued flit 218509
Received nack credit for flit 143055
Requeued flit 143055
1
Received nack credit for flit 244072
Requeued flit 244072
4
3
Received nack credit for flit 241250
Requeued flit 241250
Received nack credit for flit 236968
Requeued flit 236968
Received nack credit for flit 140016
Requeued flit 140016
5
Received nack credit for flit 230201
Requeued flit 230201
3
3
Received nack credit for flit 239858
Requeued flit 239858
11
Received nack credit for flit 240300
Requeued flit 240300
Received nack credit for flit 118986
Requeued flit 118986
4
5
Received nack credit for flit 247125
Requeued flit 247125
2
Received nack credit for flit 240309
Requeued flit 240309
1
Received nack credit for flit 246012
Requeued flit 246012
Received nack credit for flit 246180
Requeued flit 246180
2
9
Received nack credit for flit 165489
Requeued flit 165489
Received nack credit for flit 213851
Requeued flit 213851
2
1
Received nack credit for flit 257329
Requeued flit 257329
Received nack credit for flit 244137
Requeued flit 244137
4
3
2
Received nack credit for flit 247386
Requeued flit 247386
Received nack credit for flit 140823
Requeued flit 140823
Received nack credit for flit 187860
Requeued flit 187860
1
Received nack credit for flit 265315
Requeued flit 265315
1
Received nack credit for flit 248441
Requeued flit 248441
1
Received nack credit for flit 248574
Requeued flit 248574
1
2
Received nack credit for flit 214341
Requeued flit 214341
3
5
Received nack credit for flit 243644
Requeued flit 243644
Received nack credit for flit 259600
Requeued flit 259600
4
Received nack credit for flit 140116
Requeued flit 140116
Received nack credit for flit 259753
Requeued flit 259753
1
1
Received nack credit for flit 254123
Requeued flit 254123
4
1
Received nack credit for flit 248254
Requeued flit 248254
Received nack credit for flit 206060
Requeued flit 206060
Received nack credit for flit 246990
Requeued flit 246990
2
Received nack credit for flit 243977
Requeued flit 243977
4
[...]
8
Received nack credit for flit 314705
Requeued flit 314705
Received nack credit for flit 191752
Requeued flit 191752
Received nack credit for flit 249104
Requeued flit 249104
7
5
Received nack credit for flit 310989
Requeued flit 310989
Received nack credit for flit 183890
Requeued flit 183890
3
1
Received nack credit for flit 315448
Requeued flit 315448
2
Received nack credit for flit 292951
Requeued flit 292951
Received nack credit for flit 321538
Requeued flit 321538
1
1
Received nack credit for flit 290700
Requeued flit 290700
Received nack credit for flit 310257
Requeued flit 310257
6
1
Received nack credit for flit 194153
Requeued flit 194153
Received nack credit for flit 310337
Requeued flit 310337
1
1
9
Received nack credit for flit 293096
Requeued flit 293096
Received nack credit for flit 311969
Requeued flit 311969
Received nack credit for flit 177969
Requeued flit 177969
1
Received nack credit for flit 286590
Requeued flit 286590
8
2
2
Received nack credit for flit 196232
Requeued flit 196232
2
Received nack credit for flit 277138
Requeued flit 277138
Received nack credit for flit 253926
Requeued flit 253926
1
2
7
Received nack credit for flit 324423
Requeued flit 324423
Received nack credit for flit 315309
Requeued flit 315309
Received nack credit for flit 324198
Requeued flit 324198
Received nack credit for flit 191986
Requeued flit 191986
2
7
1
Received nack credit for flit 312609
Requeued flit 312609
Received nack credit for flit 186763
Requeued flit 186763
Received nack credit for flit 288302
Requeued flit 288302
2
Received nack credit for flit 283563
Requeued flit 283563
3
1
Received nack credit for flit 334350
Requeued flit 334350
5
10
Received nack credit for flit 291708
Requeued flit 291708
Received nack credit for flit 188874
Requeued flit 188874
Received nack credit for flit 316720
Requeued flit 316720
1
Received nack credit for flit 334431
Requeued flit 334431
2
1
4
Received nack credit for flit 319795
Requeued flit 319795
Received nack credit for flit 315553
Requeued flit 315553
6
Received nack credit for flit 240606
Requeued flit 240606
1
3
Received nack credit for flit 318035
Requeued flit 318035
Received nack credit for flit 314798
Requeued flit 314798
Received nack credit for flit 266357
Requeued flit 266357
9
2
Received nack credit for flit 192545
Requeued flit 192545
Received nack credit for flit 337994
Requeued flit 337994
4
Received nack credit for flit 214672
Requeued flit 214672
1
1
7
6
Received nack credit for flit 318842
Requeued flit 318842
6
Received nack credit for flit 344794
Requeued flit 344794
Received nack credit for flit 306406
Requeued flit 306406
Received nack credit for flit 201054
Requeued flit 201054
Received nack credit for flit 205441
Requeued flit 205441
2
1
Received nack credit for flit 279703
Requeued flit 279703
1
Received nack credit for flit 336014
Requeued flit 336014
Received nack credit for flit 339376
Requeued flit 339376
4
3
Received nack credit for flit 197116
Requeued flit 197116
Received nack credit for flit 245618
Requeued flit 245618
2
11
1
Received nack credit for flit 320937
Requeued flit 320937
8
Received nack credit for flit 331445
Requeued flit 331445
Received nack credit for flit 256815
Requeued flit 256815
Received nack credit for flit 223052
Requeued flit 223052
6
3
1
Received nack credit for flit 274109
Requeued flit 274109
Received nack credit for flit 316498
Requeued flit 316498
Received nack credit for flit 331926
Requeued flit 331926
3
Received nack credit for flit 321199
Requeued flit 321199
8
5
Received nack credit for flit 208582
Requeued flit 208582
1
Received nack credit for flit 197567
Requeued flit 197567
Received nack credit for flit 332437
Requeued flit 332437
1
1
Received nack credit for flit 322449
Requeued flit 322449
Received nack credit for flit 322516
Requeued flit 322516
6
5
1
Received nack credit for flit 322544
Requeued flit 322544
1
Received nack credit for flit 213493
Requeued flit 213493
Received nack credit for flit 340776
Requeued flit 340776
3
2
Received nack credit for flit 301297
Requeued flit 301297
Received nack credit for flit 264113
Requeued flit 264113
Received nack credit for flit 263254
Requeued flit 263254
8
2
Received nack credit for flit 308949
Requeued flit 308949
1
3
Received nack credit for flit 296590
Requeued flit 296590
5
Received nack credit for flit 341262
Requeued flit 341262
Received nack credit for flit 300388
Requeued flit 300388
2
Received nack credit for flit 279019
Requeued flit 279019
7
2
Received nack credit for flit 287873
Requeued flit 287873
Received nack credit for flit 334605
Requeued flit 334605
Received nack credit for flit 265430
Requeued flit 265430
1
10
Received nack credit for flit 299122
Requeued flit 299122
Received nack credit for flit 198431
Requeued flit 198431
2
Received nack credit for flit 299759
Requeued flit 299759
4
7
5
Received nack credit for flit 277959
Requeued flit 277959
Received nack credit for flit 278332
Requeued flit 278332
Received nack credit for flit 273375
Requeued flit 273375
1
6
Received nack credit for flit 301032
Requeued flit 301032
Received nack credit for flit 197406
Requeued flit 197406
7
1
5
2
Received nack credit for flit 212519
Requeued flit 212519
Received nack credit for flit 324833
Requeued flit 324833
Received nack credit for flit 224006
Requeued flit 224006
4
Received nack credit for flit 286561
Requeued flit 286561
2
Received nack credit for flit 202821
Requeued flit 202821
Received nack credit for flit 264525
Requeued flit 264525
1
1
10
2
12
1
Received nack credit for flit 337532
Requeued flit 337532
Received nack credit for flit 324209
Requeued flit 324209
Received nack credit for flit 300360
Requeued flit 300360
Received nack credit for flit 183596
Requeued flit 183596
Received nack credit for flit 271819
Requeued flit 271819
Received nack credit for flit 343833
Requeued flit 343833
3
3
Received nack credit for flit 221538
Requeued flit 221538
Received nack credit for flit 284581
Requeued flit 284581
6
2
Received nack credit for flit 311528
Requeued flit 311528
Received nack credit for flit 348299
Requeued flit 348299
4
8
Received nack credit for flit 313536
Requeued flit 313536
Received nack credit for flit 331005
Requeued flit 331005
4
Received nack credit for flit 197963
Requeued flit 197963
1
5
Received nack credit for flit 340319
Requeued flit 340319
Received nack credit for flit 336001
Requeued flit 336001
1
Received nack credit for flit 340637
Requeued flit 340637
4
6
Received nack credit for flit 318113
Requeued flit 318113
Received nack credit for flit 329873
Requeued flit 329873
4
Received nack credit for flit 283282
Requeued flit 283282
2
1
Received nack credit for flit 243236
Requeued flit 243236
Received nack credit for flit 330803
Requeued flit 330803
1
2
1
5
Received nack credit for flit 332256
Requeued flit 332256
Received nack credit for flit 335003
Requeued flit 335003
Received nack credit for flit 244545
Requeued flit 244545
Received nack credit for flit 306059
Requeued flit 306059
1
4
Received nack credit for flit 350377
Requeued flit 350377
3
Received nack credit for flit 336059
Requeued flit 336059
1
5
1
6
Received nack credit for flit 342974
Requeued flit 342974
Received nack credit for flit 336647
Requeued flit 336647
Received nack credit for flit 342950
Requeued flit 342950
1
Received nack credit for flit 351860
Requeued flit 351860
Received nack credit for flit 197325
Requeued flit 197325
Received nack credit for flit 305596
Requeued flit 305596
5
4
Received nack credit for flit 196517
Requeued flit 196517
Received nack credit for flit 311633
Requeued flit 311633
1
3
Received nack credit for flit 331839
Requeued flit 331839
Received nack credit for flit 351816
Requeued flit 351816
3
1
2
Received nack credit for flit 313716
Requeued flit 313716
4
Received nack credit for flit 334839
Requeued flit 334839
Received nack credit for flit 249337
Requeued flit 249337
Received nack credit for flit 206884
Requeued flit 206884
1
3
Received nack credit for flit 344104
Requeued flit 344104
Received nack credit for flit 288156
Requeued flit 288156
1
2
Received nack credit for flit 344610
Requeued flit 344610
4
Received nack credit for flit 351246
Requeued flit 351246
Received nack credit for flit 294765
Requeued flit 294765
5
6
1
Received nack credit for flit 335333
Requeued flit 335333
Received nack credit for flit 283220
Requeued flit 283220
1
Received nack credit for flit 312969
Requeued flit 312969
5
Received nack credit for flit 345309
Requeued flit 345309
1
7
Received nack credit for flit 190539
Requeued flit 190539
Received nack credit for flit 334526
Requeued flit 334526
Received nack credit for flit 348829
Requeued flit 348829
2
4
Received nack credit for flit 337544
Requeued flit 337544
Received nack credit for flit 224297
Requeued flit 224297
6
2
Received nack credit for flit 286912
Requeued flit 286912
Received nack credit for flit 352090
Requeued flit 352090
1
1
Received nack credit for flit 346571
Requeued flit 346571
1
3
Received nack credit for flit 346626
Requeued flit 346626
Received nack credit for flit 352606
Requeued flit 352606
Received nack credit for flit 222570
Requeued flit 222570
1
1
Received nack credit for flit 314122
Requeued flit 314122
Received nack credit for flit 354124
Requeued flit 354124
5
Received nack credit for flit 254559
Requeued flit 254559
1
6
5
Received nack credit for flit 315129
Requeued flit 315129
Received nack credit for flit 322910
Requeued flit 322910
Received nack credit for flit 326046
Requeued flit 326046
3
5
3
Received nack credit for flit 295005
Requeued flit 295005
Received nack credit for flit 323198
Requeued flit 323198
1
8
Received nack credit for flit 226999
Requeued flit 226999
Received nack credit for flit 338013
Requeued flit 338013
Received nack credit for flit 197501
Requeued flit 197501
2
1
Received nack credit for flit 254286
Requeued flit 254286
Received nack credit for flit 332437
Requeued flit 332437
9
6
Received nack credit for flit 197593
Requeued flit 197593
8
Received nack credit for flit 204889
Requeued flit 204889
2
1
Received nack credit for flit 219978
Requeued flit 219978
1
Received nack credit for flit 349344
Requeued flit 349344
3
Received nack credit for flit 312738
Requeued flit 312738
1
Received nack credit for flit 358245
Requeued flit 358245
4
1
Received nack credit for flit 318439
Requeued flit 318439
Received nack credit for flit 349898
Requeued flit 349898
Received nack credit for flit 356679
Requeued flit 356679
Received nack credit for flit 322253
Requeued flit 322253
1
1
3
Received nack credit for flit 350353
Requeued flit 350353
Received nack credit for flit 350345
Requeued flit 350345
6
Received nack credit for flit 229267
Requeued flit 229267
Received nack credit for flit 231024
Requeued flit 231024
1
1
4
Received nack credit for flit 350769
Requeued flit 350769
Received nack credit for flit 318571
Requeued flit 318571
Received nack credit for flit 342550
Requeued flit 342550
1
2
Received nack credit for flit 359749
Requeued flit 359749
Received nack credit for flit 278168
Requeued flit 278168
1
Received nack credit for flit 339003
Requeued flit 339003
1
Received nack credit for flit 351898
Requeued flit 351898
1
Received nack credit for flit 351933
Requeued flit 351933
3
4
7
Received nack credit for flit 304317
Requeued flit 304317
Received nack credit for flit 283432
Requeued flit 283432
1
Received nack credit for flit 323100
Requeued flit 323100
Received nack credit for flit 342954
Requeued flit 342954
1
Received nack credit for flit 353391
Requeued flit 353391
6
6
5
Received nack credit for flit 206535
Requeued flit 206535
Received nack credit for flit 342242
Requeued flit 342242
Received nack credit for flit 345979
Requeued flit 345979
3
7
5
2
Received nack credit for flit 343897
Requeued flit 343897
Received nack credit for flit 198611
Requeued flit 198611
2
Received nack credit for flit 346591
Requeued flit 346591
Received nack credit for flit 306286
Requeued flit 306286
Received nack credit for flit 357374
Requeued flit 357374
6
Received nack credit for flit 332824
Requeued flit 332824
3
1
Received nack credit for flit 302281
Requeued flit 302281
Received nack credit for flit 362777
Requeued flit 362777
4
Received nack credit for flit 345826
Requeued flit 345826
1
1
Received nack credit for flit 362506
Requeued flit 362506
1
Received nack credit for flit 348293
Requeued flit 348293
2
Received nack credit for flit 366005
Requeued flit 366005
1
3
Received nack credit for flit 347328
Requeued flit 347328
1
Received nack credit for flit 320870
Requeued flit 320870
Received nack credit for flit 344360
Requeued flit 344360
Received nack credit for flit 362125
Requeued flit 362125
1
Received nack credit for flit 321363
Requeued flit 321363
1
Received nack credit for flit 322110
Requeued flit 322110
4
1
Received nack credit for flit 211544
Requeued flit 211544
Received nack credit for flit 373980
Requeued flit 373980
1
Received nack credit for flit 358325
Requeued flit 358325
3
Received nack credit for flit 348078
Requeued flit 348078
2
2
1
1
Received nack credit for flit 259108
Requeued flit 259108
Received nack credit for flit 263252
Requeued flit 263252
Received nack credit for flit 323972
Requeued flit 323972
Received nack credit for flit 359142
Requeued flit 359142
6
1
1
Received nack credit for flit 359424
Requeued flit 359424
Received nack credit for flit 350777
Requeued flit 350777
Received nack credit for flit 347553
Requeued flit 347553
6
3
2
Received nack credit for flit 257482
Requeued flit 257482
Received nack credit for flit 332611
Requeued flit 332611
Received nack credit for flit 367868
Requeued flit 367868
1
3
2
1
Received nack credit for flit 326265
Requeued flit 326265
Received nack credit for flit 231667
Requeued flit 231667
Received nack credit for flit 328866
Requeued flit 328866
Received nack credit for flit 352166
Requeued flit 352166
9
2
Received nack credit for flit 360924
Requeued flit 360924
Received nack credit for flit 350950
Requeued flit 350950
7
1
Received nack credit for flit 195027
Requeued flit 195027
Received nack credit for flit 361436
Requeued flit 361436
1
Received nack credit for flit 352621
Requeued flit 352621
1
1
Received nack credit for flit 353387
Requeued flit 353387
Received nack credit for flit 331928
Requeued flit 331928
5
Received nack credit for flit 204724
Requeued flit 204724
2
1
Received nack credit for flit 362279
Requeued flit 362279
Received nack credit for flit 353759
Requeued flit 353759
2
Received nack credit for flit 378517
Requeued flit 378517
3
1
Received nack credit for flit 277706
Requeued flit 277706
Received nack credit for flit 363278
Requeued flit 363278
3
1
Received nack credit for flit 328434
Requeued flit 328434
Received nack credit for flit 351695
Requeued flit 351695
1
Received nack credit for flit 328151
Requeued flit 328151
3
1
1
4
Received nack credit for flit 299031
Requeued flit 299031
4
Received nack credit for flit 354193
Requeued flit 354193
Received nack credit for flit 327186
Requeued flit 327186
Received nack credit for flit 214659
Requeued flit 214659
Received nack credit for flit 353811
Requeued flit 353811
3
Received nack credit for flit 370947
Requeued flit 370947
2
1
2
3
Received nack credit for flit 266963
Requeued flit 266963
Received nack credit for flit 352341
Requeued flit 352341
Received nack credit for flit 353784
Requeued flit 353784
2
Received nack credit for flit 338453
Requeued flit 338453
Received nack credit for flit 315216
Requeued flit 315216
5
Received nack credit for flit 250890
Requeued flit 250890
1
2
Received nack credit for flit 373329
Requeued flit 373329
Received nack credit for flit 372867
Requeued flit 372867
1
Received nack credit for flit 331510
Requeued flit 331510
8
Received nack credit for flit 238397
Requeued flit 238397
2
Received nack credit for flit 374627
Requeued flit 374627
1
1
Received nack credit for flit 332827
Requeued flit 332827
Received nack credit for flit 367565
Requeued flit 367565
12
2
1
1
Received nack credit for flit 198187
Requeued flit 198187
3
1
Received nack credit for flit 368051
Requeued flit 368051
Received nack credit for flit 368072
Requeued flit 368072
Received nack credit for flit 312066
Requeued flit 312066
Received nack credit for flit 356940
Requeued flit 356940
Received nack credit for flit 357564
Requeued flit 357564
4
Received nack credit for flit 249419
Requeued flit 249419
2
Received nack credit for flit 321699
Requeued flit 321699
8
2
Received nack credit for flit 358744
Requeued flit 358744
Received nack credit for flit 360940
Requeued flit 360940
3
1
1
3
Received nack credit for flit 311147
Requeued flit 311147
Received nack credit for flit 369873
Requeued flit 369873
Received nack credit for flit 333003
Requeued flit 333003
Received nack credit for flit 243334
Requeued flit 243334
1
3
1
Received nack credit for flit 269037
Requeued flit 269037
1
Received nack credit for flit 370202
Requeued flit 370202
6
Received nack credit for flit 336564
Requeued flit 336564
Received nack credit for flit 337222
Requeued flit 337222
6
Received nack credit for flit 211568
Requeued flit 211568
Received nack credit for flit 210560
Requeued flit 210560
1
Received nack credit for flit 378024
Requeued flit 378024
2
7
Received nack credit for flit 378243
Requeued flit 378243
5
Received nack credit for flit 315912
Requeued flit 315912
5
1
Received nack credit for flit 379230
Requeued flit 379230
Received nack credit for flit 363652
Requeued flit 363652
Received nack credit for flit 361011
Requeued flit 361011
1
Received nack credit for flit 359691
Requeued flit 359691
2
Received nack credit for flit 327513
Requeued flit 327513
2
1
10
10
1
Received nack credit for flit 361146
Requeued flit 361146
Received nack credit for flit 362202
Requeued flit 362202
3
Received nack credit for flit 212923
Requeued flit 212923
Received nack credit for flit 333879
Requeued flit 333879
Received nack credit for flit 315860
Requeued flit 315860
1
Received nack credit for flit 360421
Requeued flit 360421
4
6
Received nack credit for flit 303865
Requeued flit 303865
Received nack credit for flit 317893
Requeued flit 317893
5
Received nack credit for flit 381128
Requeued flit 381128
2
8
Received nack credit for flit 327315
Requeued flit 327315
2
Received nack credit for flit 203033
Requeued flit 203033
Received nack credit for flit 374179
Requeued flit 374179
8
Received nack credit for flit 303175
Requeued flit 303175
1
Received nack credit for flit 374890
Requeued flit 374890
2
Received nack credit for flit 355336
Requeued flit 355336
2
3
4
Received nack credit for flit 286941
Requeued flit 286941
Received nack credit for flit 247987
Requeued flit 247987
Received nack credit for flit 354359
Requeued flit 354359
1
Received nack credit for flit 365789
Requeued flit 365789
8
1
Received nack credit for flit 298619
Requeued flit 298619
4
Received nack credit for flit 364401
Requeued flit 364401
Class 0:
Packet latency average = 1267.79
	minimum = 5
	maximum = 5925
Network latency average = 1205.25
	minimum = 5
	maximum = 5925
Slowest packet = 189359
Flit latency average = 1205.25
	minimum = 5
	maximum = 5925
Slowest flit = 189359
Fragmentation average = 0
	minimum = 0
	maximum = 0
Injected packet rate average = 0.614152
	minimum = 0.4635 (at node 22)
	maximum = 0.7586 (at node 44)
Accepted packet rate average = 0.506953
	minimum = 0.4868 (at node 21)
	maximum = 0.5235 (at node 14)
Injected flit rate average = 0.614152
	minimum = 0.4635 (at node 22)
	maximum = 0.7586 (at node 44)
Accepted flit rate average= 0.506953
	minimum = 0.4868 (at node 21)
	maximum = 0.5235 (at node 14)
Injected packet length average = 1
Accepted packet length average = 1
Total in-flight flits = 68636 (0 measured)
latency change    = 1
throughput change = 1
Average latency for class 0 exceeded 500 cycles. Aborting simulation.
Too many sample periods needed to converge
Simulation unstable, ending ...
Total run time 56.6796
