BEGIN Configuration File: examples/ecc_mesh88_config_1_0.550_packet_4
// $Id$

// Copyright (c) 2007-2015, Trustees of The Leland Stanford Junior University
// All rights reserved.
//
// Redistribution and use in source and binary forms, with or without
// modification, are permitted provided that the following conditions are met:
//
// Redistributions of source code must retain the above copyright notice, this
// list of conditions and the following disclaimer.
// Redistributions in binary form must reproduce the above copyright notice,
// this list of conditions and the following disclaimer in the documentation
// and/or other materials provided with the distribution.
//
// THIS SOFTWARE IS PROVIDED BY THE COPYRIGHT HOLDERS AND CONTRIBUTORS "AS IS"
// AND ANY EXPRESS OR IMPLIED WARRANTIES, INCLUDING, BUT NOT LIMITED TO, THE
// IMPLIED WARRANTIES OF MERCHANTABILITY AND FITNESS FOR A PARTICULAR PURPOSE
// ARE DISCLAIMED. IN NO EVENT SHALL THE COPYRIGHT OWNER OR CONTRIBUTORS BE
// LIABLE FOR ANY DIRECT, INDIRECT, INCIDENTAL, SPECIAL, EXEMPLARY, OR
// CONSEQUENTIAL DAMAGES (INCLUDING, BUT NOT LIMITED TO, PROCUREMENT OF
// SUBSTITUTE GOODS OR SERVICES; LOSS OF USE, DATA, OR PROFITS; OR BUSINESS
// INTERRUPTION) HOWEVER CAUSED AND ON ANY THEORY OF LIABILITY, WHETHER IN
// CONTRACT, STRICT LIABILITY, OR TORT (INCLUDING NEGLIGENCE OR OTHERWISE)
// ARISING IN ANY WAY OUT OF THE USE OF THIS SOFTWARE, EVEN IF ADVISED OF THE
// POSSIBILITY OF SUCH DAMAGE.

// Dragonfly
//




vc_buf_size = 256;


wait_for_tail_credit = 0;

//
// Router architecture
//
vc_allocator = separable_input_first; 
sw_allocator = separable_input_first;
alloc_iters  = 1;

credit_delay   = 2;
routing_delay  = 0;
vc_alloc_delay = 1;
sw_alloc_delay = 1;
st_final_delay = 1;

input_speedup     = 1;
output_speedup    = 1;
internal_speedup  = 2.0;


warmup_periods = 3;
sim_count          = 1;

sample_period  = 10000;  


routing_function = dor;
num_vcs     = 2;

priority = none;
traffic       = uniform; 

injection_rate = 0.55;
packet_size = 1;
injection_rate_uses_flits = 1;

topology = mesh;

k  = 8;
n  = 2;

fer = 4;
ecc = link;

watch_out=-;
//watch_file = watch.txt;

ecc = packet;

stats_out = examples/ecc_mesh88_config_1_0.550_packet_4.m;

END Configuration File: examples/ecc_mesh88_config_1_0.550_packet_4
Additional hops: 3
Set signal latency stall time: 6
Reenqueueing errored packet 920 at time 49
Additional hops: 11
Set signal latency stall time: 16
Additional hops: 14
Set signal latency stall time: 6
Reenqueueing errored packet 2214 at time 83
Reenqueueing errored packet 1185 at time 89
Additional hops: 20
Set signal latency stall time: 12
Reenqueueing errored packet 3025 at time 129
Additional hops: 25
Set signal latency stall time: 10
Reenqueueing errored packet 4777 at time 176
Additional hops: 34
Set signal latency stall time: 18
Reenqueueing errored packet 4784 at time 214
Additional hops: 41
Set signal latency stall time: 14
Reenqueueing errored packet 6804 at time 258
Additional hops: 46
Set signal latency stall time: 10
Reenqueueing errored packet 8181 at time 284
Additional hops: 52
Set signal latency stall time: 12
Reenqueueing errored packet 12104 at time 425
Additional hops: 58
Set signal latency stall time: 12
Reenqueueing errored packet 17112 at time 570
Additional hops: 64
Set signal latency stall time: 12
Reenqueueing errored packet 17040 at time 583
Additional hops: 72
Set signal latency stall time: 16
Reenqueueing errored packet 17484 at time 606
Additional hops: 77
Set signal latency stall time: 10
Reenqueueing errored packet 21088 at time 632
Additional hops: 78
Set signal latency stall time: 2
Reenqueueing errored packet 24641 at time 711
Additional hops: 84
Set signal latency stall time: 12
Reenqueueing errored packet 24068 at time 751
Additional hops: 89
Set signal latency stall time: 10
Reenqueueing errored packet 26399 at time 816
Additional hops: 95
Set signal latency stall time: 12
Reenqueueing errored packet 30478 at time 994
Additional hops: 101
Set signal latency stall time: 12
Reenqueueing errored packet 31972 at time 1024
Additional hops: 109
Set signal latency stall time: 16
Reenqueueing errored packet 31772 at time 1138
Additional hops: 111
Set signal latency stall time: 4
Reenqueueing errored packet 40012 at time 1170
Additional hops: 118
Set signal latency stall time: 14
Reenqueueing errored packet 36840 at time 1229
Additional hops: 125
Set signal latency stall time: 14
Reenqueueing errored packet 37269 at time 1280
Additional hops: 133
Set signal latency stall time: 16
Additional hops: 141
Set signal latency stall time: 16
Reenqueueing errored packet 43742 at time 1308
Reenqueueing errored packet 37716 at time 1320
Additional hops: 150
Set signal latency stall time: 18
Reenqueueing errored packet 43453 at time 1353
Additional hops: 158
Set signal latency stall time: 16
Reenqueueing errored packet 46315 at time 1503
Additional hops: 167
Set signal latency stall time: 18
Additional hops: 171
Set signal latency stall time: 8
Reenqueueing errored packet 51366 at time 1538
Reenqueueing errored packet 48405 at time 1544
Additional hops: 177
Set signal latency stall time: 12
Reenqueueing errored packet 52308 at time 1604
Additional hops: 181
Set signal latency stall time: 8
Reenqueueing errored packet 52831 at time 1632
Additional hops: 189
Set signal latency stall time: 16
Reenqueueing errored packet 55321 at time 1709
Additional hops: 194
Set signal latency stall time: 10
Reenqueueing errored packet 55169 at time 1722
Additional hops: 200
Set signal latency stall time: 12
Reenqueueing errored packet 59395 at time 1748
Additional hops: 207
Set signal latency stall time: 14
Additional hops: 215
Set signal latency stall time: 16
Reenqueueing errored packet 55053 at time 1772
Reenqueueing errored packet 53242 at time 1786
Additional hops: 227
Set signal latency stall time: 24
Reenqueueing errored packet 52254 at time 1819
Additional hops: 235
Set signal latency stall time: 16
Reenqueueing errored packet 59654 at time 1986
Additional hops: 239
Set signal latency stall time: 8
Reenqueueing errored packet 61291 at time 2025
Additional hops: 243
Set signal latency stall time: 8
Reenqueueing errored packet 68410 at time 2206
Additional hops: 248
Set signal latency stall time: 10
Additional hops: 257
Set signal latency stall time: 18
Additional hops: 260
Set signal latency stall time: 6
Reenqueueing errored packet 72360 at time 2287
Reenqueueing errored packet 79855 at time 2288
Reenqueueing errored packet 68991 at time 2296
Additional hops: 263
Set signal latency stall time: 6
Reenqueueing errored packet 82284 at time 2357
Additional hops: 273
Set signal latency stall time: 20
Additional hops: 278
Set signal latency stall time: 10
Additional hops: 284
Set signal latency stall time: 12
Reenqueueing errored packet 75163 at time 2385
Reenqueueing errored packet 76172 at time 2387
Reenqueueing errored packet 72977 at time 2392
Additional hops: 289
Set signal latency stall time: 10
Additional hops: 297
Set signal latency stall time: 16
Reenqueueing errored packet 78359 at time 2413
Reenqueueing errored packet 81552 at time 2422
Additional hops: 307
Set signal latency stall time: 20
Additional hops: 311
Set signal latency stall time: 8
Additional hops: 319
Set signal latency stall time: 16
Reenqueueing errored packet 86807 at time 2507
Reenqueueing errored packet 81933 at time 2507
Reenqueueing errored packet 82753 at time 2516
Additional hops: 328
Set signal latency stall time: 18
Additional hops: 332
Set signal latency stall time: 8
Additional hops: 336
Set signal latency stall time: 8
Additional hops: 343
Set signal latency stall time: 14
Reenqueueing errored packet 85982 at time 2615
Reenqueueing errored packet 91007 at time 2616
Reenqueueing errored packet 77444 at time 2616
Reenqueueing errored packet 85013 at time 2627
Additional hops: 351
Set signal latency stall time: 16
Reenqueueing errored packet 79163 at time 2654
Additional hops: 357
Set signal latency stall time: 12
Reenqueueing errored packet 87051 at time 2694
Additional hops: 367
Set signal latency stall time: 20
Reenqueueing errored packet 76382 at time 2757
Additional hops: 373
Set signal latency stall time: 12
Reenqueueing errored packet 90849 at time 2774
Additional hops: 380
Set signal latency stall time: 14
Reenqueueing errored packet 90232 at time 2834
Additional hops: 392
Set signal latency stall time: 24
Reenqueueing errored packet 87204 at time 2906
Additional hops: 400
Set signal latency stall time: 16
Reenqueueing errored packet 84824 at time 2951
Additional hops: 411
Set signal latency stall time: 22
Reenqueueing errored packet 87676 at time 3011
Additional hops: 420
Set signal latency stall time: 18
Reenqueueing errored packet 92222 at time 3059
Additional hops: 427
Set signal latency stall time: 14
Reenqueueing errored packet 102099 at time 3174
Additional hops: 435
Set signal latency stall time: 16
Additional hops: 439
Set signal latency stall time: 8
Reenqueueing errored packet 105430 at time 3330
Additional hops: 446
Set signal latency stall time: 14
Reenqueueing errored packet 112919 at time 3332
Reenqueueing errored packet 108023 at time 3345
Additional hops: 452
Set signal latency stall time: 12
Additional hops: 460
Set signal latency stall time: 16
Reenqueueing errored packet 111563 at time 3366
Reenqueueing errored packet 110367 at time 3380
Additional hops: 471
Set signal latency stall time: 22
Additional hops: 479
Set signal latency stall time: 16
Reenqueueing errored packet 103584 at time 3414
Reenqueueing errored packet 101963 at time 3417
Additional hops: 486
Set signal latency stall time: 14
Additional hops: 488
Set signal latency stall time: 4
Reenqueueing errored packet 113239 at time 3580
Reenqueueing errored packet 125073 at time 3582
Additional hops: 497
Set signal latency stall time: 18
Additional hops: 504
Set signal latency stall time: 14
Reenqueueing errored packet 109672 at time 3616
Reenqueueing errored packet 115943 at time 3625
Additional hops: 509
Set signal latency stall time: 10
Reenqueueing errored packet 127462 at time 3656
Additional hops: 517
Set signal latency stall time: 16
Reenqueueing errored packet 108651 at time 3677
Additional hops: 519
Set signal latency stall time: 4
Reenqueueing errored packet 129855 at time 3703
Additional hops: 525
Set signal latency stall time: 12
Additional hops: 535
Set signal latency stall time: 20
Reenqueueing errored packet 115274 at time 3768
Reenqueueing errored packet 116089 at time 3779
Additional hops: 543
Set signal latency stall time: 16
Additional hops: 548
Set signal latency stall time: 10
Reenqueueing errored packet 132206 at time 3801
Reenqueueing errored packet 118398 at time 3805
Additional hops: 550
Set signal latency stall time: 4
Reenqueueing errored packet 136662 at time 3920
Additional hops: 553
Set signal latency stall time: 6
Additional hops: 561
Set signal latency stall time: 16
Reenqueueing errored packet 128413 at time 3959
Additional hops: 566
Set signal latency stall time: 10
Additional hops: 572
Set signal latency stall time: 12
Reenqueueing errored packet 124188 at time 3972
Reenqueueing errored packet 124977 at time 3976
Reenqueueing errored packet 125201 at time 3979
Additional hops: 576
Set signal latency stall time: 8
Reenqueueing errored packet 135918 at time 4113
Additional hops: 578
Set signal latency stall time: 4
Reenqueueing errored packet 145552 at time 4153
Additional hops: 589
Set signal latency stall time: 22
Additional hops: 596
Set signal latency stall time: 14
Reenqueueing errored packet 126633 at time 4189
Reenqueueing errored packet 130062 at time 4190
Additional hops: 601
Set signal latency stall time: 10
Reenqueueing errored packet 139744 at time 4300
Additional hops: 609
Set signal latency stall time: 16
Additional hops: 617
Set signal latency stall time: 16
Additional hops: 621
Set signal latency stall time: 8
Reenqueueing errored packet 145270 at time 4336
Reenqueueing errored packet 144634 at time 4337
Reenqueueing errored packet 137116 at time 4343
Additional hops: 627
Set signal latency stall time: 12
Additional hops: 634
Set signal latency stall time: 14
Reenqueueing errored packet 138912 at time 4432
Reenqueueing errored packet 148518 at time 4438
Additional hops: 640
Set signal latency stall time: 12
Additional hops: 645
Set signal latency stall time: 10
Reenqueueing errored packet 147657 at time 4466
Reenqueueing errored packet 145915 at time 4467
Additional hops: 657
Set signal latency stall time: 24
Reenqueueing errored packet 133112 at time 4505
Additional hops: 661
Set signal latency stall time: 8
Reenqueueing errored packet 162706 at time 4661
Additional hops: 665
Set signal latency stall time: 8
Reenqueueing errored packet 159401 at time 4677
Additional hops: 674
Set signal latency stall time: 18
Reenqueueing errored packet 146589 at time 4711
Additional hops: 679
Set signal latency stall time: 10
Reenqueueing errored packet 153989 at time 4744
Additional hops: 688
Set signal latency stall time: 18
Additional hops: 692
Set signal latency stall time: 8
Reenqueueing errored packet 162538 at time 4806
Reenqueueing errored packet 149041 at time 4814
Additional hops: 699
Set signal latency stall time: 14
Reenqueueing errored packet 162613 at time 4877
Additional hops: 706
Set signal latency stall time: 14
Additional hops: 714
Set signal latency stall time: 16
Reenqueueing errored packet 146131 at time 4957
Additional hops: 717
Set signal latency stall time: 6
Reenqueueing errored packet 147741 at time 4963
Reenqueueing errored packet 166539 at time 4967
Additional hops: 724
Set signal latency stall time: 14
Additional hops: 732
Set signal latency stall time: 16
Reenqueueing errored packet 152636 at time 4988
Reenqueueing errored packet 153902 at time 4990
Additional hops: 735
Set signal latency stall time: 6
Reenqueueing errored packet 178084 at time 5086
Additional hops: 745
Set signal latency stall time: 20
Reenqueueing errored packet 159972 at time 5205
Additional hops: 756
Set signal latency stall time: 22
Reenqueueing errored packet 157005 at time 5254
Additional hops: 763
Set signal latency stall time: 14
Reenqueueing errored packet 153489 at time 5293
Additional hops: 773
Set signal latency stall time: 20
Reenqueueing errored packet 161423 at time 5315
Additional hops: 782
Set signal latency stall time: 18
Reenqueueing errored packet 162976 at time 5422
Additional hops: 787
Set signal latency stall time: 10
Reenqueueing errored packet 189553 at time 5448
Additional hops: 797
Set signal latency stall time: 20
Additional hops: 803
Set signal latency stall time: 12
Reenqueueing errored packet 178030 at time 5475
Additional hops: 810
Set signal latency stall time: 14
Additional hops: 814
Set signal latency stall time: 8
Reenqueueing errored packet 161879 at time 5483
Reenqueueing errored packet 173750 at time 5490
Reenqueueing errored packet 175054 at time 5494
Additional hops: 819
Set signal latency stall time: 10
Reenqueueing errored packet 168075 at time 5506
Additional hops: 824
Set signal latency stall time: 10
Reenqueueing errored packet 179574 at time 5567
Additional hops: 829
Set signal latency stall time: 10
Additional hops: 835
Set signal latency stall time: 12
Reenqueueing errored packet 189301 at time 5657
Reenqueueing errored packet 185922 at time 5666
Additional hops: 840
Set signal latency stall time: 10
Additional hops: 844
Set signal latency stall time: 8
Reenqueueing errored packet 199700 at time 5707
Reenqueueing errored packet 199534 at time 5707
Additional hops: 851
Set signal latency stall time: 14
Additional hops: 856
Set signal latency stall time: 10
Reenqueueing errored packet 177217 at time 5817
Reenqueueing errored packet 181848 at time 5821
Additional hops: 865
Set signal latency stall time: 18
Additional hops: 871
Set signal latency stall time: 12
Reenqueueing errored packet 183568 at time 5878
Reenqueueing errored packet 176159 at time 5883
Additional hops: 881
Set signal latency stall time: 20
Reenqueueing errored packet 172768 at time 5928
Additional hops: 887
Set signal latency stall time: 12
Reenqueueing errored packet 177831 at time 5985
Additional hops: 891
Set signal latency stall time: 8
Reenqueueing errored packet 211331 at time 6034
Additional hops: 895
Set signal latency stall time: 8
Additional hops: 901
Set signal latency stall time: 12
Reenqueueing errored packet 209593 at time 6046
Reenqueueing errored packet 191397 at time 6052
Additional hops: 910
Set signal latency stall time: 18
Reenqueueing errored packet 176677 at time 6110
Additional hops: 918
Set signal latency stall time: 16
Reenqueueing errored packet 194010 at time 6148
Additional hops: 929
Set signal latency stall time: 22
Additional hops: 942
Set signal latency stall time: 26
Additional hops: 955
Set signal latency stall time: 26
Reenqueueing errored packet 184342 at time 6179
Additional hops: 963
Set signal latency stall time: 16
Additional hops: 974
Set signal latency stall time: 22
Reenqueueing errored packet 183214 at time 6190
Reenqueueing errored packet 185512 at time 6190
Reenqueueing errored packet 187261 at time 6198
Reenqueueing errored packet 185047 at time 6209
Additional hops: 980
Set signal latency stall time: 12
Reenqueueing errored packet 213965 at time 6338
Additional hops: 988
Set signal latency stall time: 16
Additional hops: 996
Set signal latency stall time: 16
Reenqueueing errored packet 198959 at time 6390
Additional hops: 1001
Set signal latency stall time: 10
Reenqueueing errored packet 200855 at time 6397
Reenqueueing errored packet 224173 at time 6405
Additional hops: 1006
Set signal latency stall time: 10
Reenqueueing errored packet 204991 at time 6482
Additional hops: 1015
Set signal latency stall time: 18
Reenqueueing errored packet 198712 at time 6536
Additional hops: 1025
Set signal latency stall time: 20
Reenqueueing errored packet 199912 at time 6636
Additional hops: 1033
Set signal latency stall time: 16
Additional hops: 1040
Set signal latency stall time: 14
Reenqueueing errored packet 198118 at time 6652
Reenqueueing errored packet 218893 at time 6653
Additional hops: 1048
Set signal latency stall time: 16
Reenqueueing errored packet 218214 at time 6702
Additional hops: 1057
Set signal latency stall time: 18
Reenqueueing errored packet 224562 at time 6729
Additional hops: 1069
Set signal latency stall time: 24
Additional hops: 1080
Set signal latency stall time: 22
Reenqueueing errored packet 202182 at time 6764
Reenqueueing errored packet 207689 at time 6768
Additional hops: 1088
Set signal latency stall time: 16
Reenqueueing errored packet 208770 at time 6786
Additional hops: 1093
Set signal latency stall time: 10
Reenqueueing errored packet 238465 at time 6823
Additional hops: 1098
Set signal latency stall time: 10
Reenqueueing errored packet 230231 at time 6862
Additional hops: 1105
Set signal latency stall time: 14
Reenqueueing errored packet 213742 at time 6881
Additional hops: 1113
Set signal latency stall time: 16
Reenqueueing errored packet 213148 at time 6898
Additional hops: 1120
Set signal latency stall time: 14
Reenqueueing errored packet 216380 at time 6966
Additional hops: 1127
Set signal latency stall time: 14
Reenqueueing errored packet 216754 at time 6999
Additional hops: 1131
Set signal latency stall time: 8
Reenqueueing errored packet 221779 at time 7021
Additional hops: 1138
Set signal latency stall time: 14
Reenqueueing errored packet 232054 at time 7059
Additional hops: 1145
Set signal latency stall time: 14
Reenqueueing errored packet 224859 at time 7256
Additional hops: 1149
Set signal latency stall time: 8
Reenqueueing errored packet 226584 at time 7282
Additional hops: 1160
Set signal latency stall time: 22
Reenqueueing errored packet 214956 at time 7307
Additional hops: 1162
Set signal latency stall time: 4
Reenqueueing errored packet 256135 at time 7418
Additional hops: 1176
Set signal latency stall time: 28
Reenqueueing errored packet 218648 at time 7474
Additional hops: 1182
Set signal latency stall time: 12
Reenqueueing errored packet 224177 at time 7515
Additional hops: 1187
Set signal latency stall time: 10
Reenqueueing errored packet 260552 at time 7551
Additional hops: 1195
Set signal latency stall time: 16
Additional hops: 1207
Set signal latency stall time: 24
Reenqueueing errored packet 241522 at time 7574
Additional hops: 1215
Set signal latency stall time: 16
Reenqueueing errored packet 225895 at time 7588
Reenqueueing errored packet 239202 at time 7600
Additional hops: 1221
Set signal latency stall time: 12
Reenqueueing errored packet 260155 at time 7726
Additional hops: 1229
Set signal latency stall time: 16
Reenqueueing errored packet 247443 at time 7768
Additional hops: 1240
Set signal latency stall time: 22
Reenqueueing errored packet 233770 at time 7822
Additional hops: 1252
Set signal latency stall time: 24
Additional hops: 1264
Set signal latency stall time: 24
Reenqueueing errored packet 233250 at time 7953
Additional hops: 1274
Set signal latency stall time: 20
Reenqueueing errored packet 240769 at time 7977
Reenqueueing errored packet 255092 at time 7997
Additional hops: 1281
Set signal latency stall time: 14
Additional hops: 1288
Set signal latency stall time: 14
Reenqueueing errored packet 269687 at time 8015
Reenqueueing errored packet 252629 at time 8015
Additional hops: 1298
Set signal latency stall time: 20
Reenqueueing errored packet 235423 at time 8042
Additional hops: 1309
Set signal latency stall time: 22
Additional hops: 1312
Set signal latency stall time: 6
Reenqueueing errored packet 270058 at time 8055
Reenqueueing errored packet 241860 at time 8069
Additional hops: 1322
Set signal latency stall time: 20
Reenqueueing errored packet 240056 at time 8172
Additional hops: 1329
Set signal latency stall time: 14
Reenqueueing errored packet 273754 at time 8219
Additional hops: 1335
Set signal latency stall time: 12
Reenqueueing errored packet 279624 at time 8345
Additional hops: 1342
Set signal latency stall time: 14
Additional hops: 1349
Set signal latency stall time: 14
Additional hops: 1356
Set signal latency stall time: 14
Reenqueueing errored packet 257688 at time 8376
Reenqueueing errored packet 266417 at time 8380
Reenqueueing errored packet 256133 at time 8386
Additional hops: 1363
Set signal latency stall time: 14
Additional hops: 1368
Set signal latency stall time: 10
Reenqueueing errored packet 275291 at time 8406
Reenqueueing errored packet 249120 at time 8407
Additional hops: 1374
Set signal latency stall time: 12
Reenqueueing errored packet 276752 at time 8420
Additional hops: 1381
Set signal latency stall time: 14
Reenqueueing errored packet 263441 at time 8530
Additional hops: 1386
Set signal latency stall time: 10
Reenqueueing errored packet 277281 at time 8560
Additional hops: 1393
Set signal latency stall time: 14
Reenqueueing errored packet 265331 at time 8593
Additional hops: 1404
Set signal latency stall time: 22
Additional hops: 1409
Set signal latency stall time: 10
Reenqueueing errored packet 283017 at time 8607
Reenqueueing errored packet 248835 at time 8617
Additional hops: 1413
Set signal latency stall time: 8
Reenqueueing errored packet 302448 at time 8640
Additional hops: 1419
Set signal latency stall time: 12
Reenqueueing errored packet 280215 at time 8764
Additional hops: 1426
Set signal latency stall time: 14
Additional hops: 1433
Set signal latency stall time: 14
Reenqueueing errored packet 279846 at time 8870
Reenqueueing errored packet 284022 at time 8877
Additional hops: 1440
Set signal latency stall time: 14
Additional hops: 1448
Set signal latency stall time: 16
Reenqueueing errored packet 302629 at time 8913
Reenqueueing errored packet 279119 at time 8923
Additional hops: 1452
Set signal latency stall time: 8
Reenqueueing errored packet 313054 at time 8939
Additional hops: 1460
Set signal latency stall time: 16
Reenqueueing errored packet 281130 at time 9008
Additional hops: 1468
Set signal latency stall time: 16
Reenqueueing errored packet 299160 at time 9068
Additional hops: 1478
Set signal latency stall time: 20
Additional hops: 1482
Set signal latency stall time: 8
Reenqueueing errored packet 290721 at time 9090
Reenqueueing errored packet 264874 at time 9092
Additional hops: 1486
Set signal latency stall time: 8
Reenqueueing errored packet 283987 at time 9132
Additional hops: 1494
Set signal latency stall time: 16
Additional hops: 1500
Set signal latency stall time: 12
Reenqueueing errored packet 276922 at time 9207
Reenqueueing errored packet 321602 at time 9211
Additional hops: 1509
Set signal latency stall time: 18
Reenqueueing errored packet 286177 at time 9245
Additional hops: 1518
Set signal latency stall time: 18
Reenqueueing errored packet 287205 at time 9284
Additional hops: 1524
Set signal latency stall time: 12
Reenqueueing errored packet 312190 at time 9319
Additional hops: 1534
Set signal latency stall time: 20
Additional hops: 1543
Set signal latency stall time: 18
Additional hops: 1553
Set signal latency stall time: 20
Reenqueueing errored packet 278657 at time 9439
Reenqueueing errored packet 291189 at time 9444
Reenqueueing errored packet 286585 at time 9459
Additional hops: 1560
Set signal latency stall time: 14
Reenqueueing errored packet 295088 at time 9477
Additional hops: 1565
Set signal latency stall time: 10
Reenqueueing errored packet 317931 at time 9505
Additional hops: 1576
Set signal latency stall time: 22
Reenqueueing errored packet 282799 at time 9543
Additional hops: 1584
Set signal latency stall time: 16
Additional hops: 1594
Set signal latency stall time: 20
Reenqueueing errored packet 282619 at time 9625
Additional hops: 1603
Set signal latency stall time: 18
Reenqueueing errored packet 303271 at time 9642
Reenqueueing errored packet 316124 at time 9646
Additional hops: 1610
Set signal latency stall time: 14
Reenqueueing errored packet 320875 at time 9678
Additional hops: 1615
Set signal latency stall time: 10
Reenqueueing errored packet 304141 at time 9710
Class 0:
Packet latency average = 364.692
	minimum = 5
	maximum = 2922
Network latency average = 364.402
	minimum = 5
	maximum = 1895
Slowest packet = 36687
Flit latency average = 364.402
	minimum = 5
	maximum = 1895
Slowest flit = 282731
Fragmentation average = 0
	minimum = 0
	maximum = 0
Injected packet rate average = 0.549592
	minimum = 0.5389 (at node 53)
	maximum = 0.5615 (at node 3)
Accepted packet rate average = 0.508747
	minimum = 0.4948 (at node 21)
	maximum = 0.5234 (at node 14)
Injected flit rate average = 0.549592
	minimum = 0.5389 (at node 53)
	maximum = 0.5615 (at node 3)
Accepted flit rate average= 0.508747
	minimum = 0.4948 (at node 21)
	maximum = 0.5234 (at node 14)
Injected packet length average = 1
Accepted packet length average = 1
Total in-flight flits = 26141 (0 measured)
latency change    = 1
throughput change = 1
Additional hops: 1624
Set signal latency stall time: 18
Reenqueueing errored packet 312696 at time 10035
Additional hops: 1630
Set signal latency stall time: 12
Reenqueueing errored packet 349394 at time 10089
Additional hops: 1640
Set signal latency stall time: 20
Additional hops: 1645
Set signal latency stall time: 10
Reenqueueing errored packet 303140 at time 10166
Reenqueueing errored packet 338178 at time 10170
Additional hops: 1648
Set signal latency stall time: 6
Reenqueueing errored packet 357914 at time 10207
Additional hops: 1656
Set signal latency stall time: 16
Additional hops: 1663
Set signal latency stall time: 14
Additional hops: 1674
Set signal latency stall time: 22
Reenqueueing errored packet 344380 at time 10271
Reenqueueing errored packet 318619 at time 10272
Reenqueueing errored packet 289570 at time 10281
Additional hops: 1679
Set signal latency stall time: 10
Reenqueueing errored packet 316180 at time 10298
Additional hops: 1686
Set signal latency stall time: 14
Reenqueueing errored packet 350270 at time 10484
Additional hops: 1696
Set signal latency stall time: 20
Reenqueueing errored packet 315157 at time 10526
Additional hops: 1703
Set signal latency stall time: 14
Reenqueueing errored packet 344067 at time 10592
Additional hops: 1713
Set signal latency stall time: 20
Additional hops: 1718
Set signal latency stall time: 10
Reenqueueing errored packet 368968 at time 10758
Reenqueueing errored packet 317393 at time 10764
Additional hops: 1724
Set signal latency stall time: 12
Reenqueueing errored packet 339760 at time 10818
Additional hops: 1727
Set signal latency stall time: 6
Reenqueueing errored packet 379862 at time 10827
Additional hops: 1737
Set signal latency stall time: 20
Additional hops: 1744
Set signal latency stall time: 14
Reenqueueing errored packet 325999 at time 10854
Additional hops: 1752
Set signal latency stall time: 16
Reenqueueing errored packet 356669 at time 10868
Reenqueueing errored packet 369591 at time 10873
Additional hops: 1759
Set signal latency stall time: 14
Reenqueueing errored packet 327443 at time 10900
Additional hops: 1769
Set signal latency stall time: 20
Additional hops: 1773
Set signal latency stall time: 8
Reenqueueing errored packet 344365 at time 10914
Reenqueueing errored packet 366260 at time 10926
Additional hops: 1776
Set signal latency stall time: 6
Reenqueueing errored packet 373801 at time 10937
Additional hops: 1783
Set signal latency stall time: 14
Reenqueueing errored packet 345938 at time 10958
Additional hops: 1787
Set signal latency stall time: 8
Reenqueueing errored packet 388934 at time 11091
Additional hops: 1797
Set signal latency stall time: 20
Additional hops: 1803
Set signal latency stall time: 12
Reenqueueing errored packet 363163 at time 11225
Reenqueueing errored packet 379935 at time 11230
Additional hops: 1806
Set signal latency stall time: 6
Reenqueueing errored packet 386260 at time 11338
Additional hops: 1811
Set signal latency stall time: 10
Reenqueueing errored packet 378550 at time 11356
Additional hops: 1820
Set signal latency stall time: 18
Reenqueueing errored packet 352039 at time 11443
Additional hops: 1828
Set signal latency stall time: 16
Reenqueueing errored packet 367007 at time 11530
Additional hops: 1834
Set signal latency stall time: 12
Additional hops: 1837
Set signal latency stall time: 6
Reenqueueing errored packet 389572 at time 11628
Reenqueueing errored packet 387040 at time 11630
Additional hops: 1839
Set signal latency stall time: 4
Reenqueueing errored packet 411080 at time 11713
Additional hops: 1846
Set signal latency stall time: 14
Reenqueueing errored packet 376046 at time 11728
Additional hops: 1853
Set signal latency stall time: 14
Reenqueueing errored packet 381660 at time 11744
Additional hops: 1863
Set signal latency stall time: 20
Reenqueueing errored packet 346646 at time 11774
Additional hops: 1871
Set signal latency stall time: 16
Reenqueueing errored packet 403380 at time 11884
Additional hops: 1880
Set signal latency stall time: 18
Reenqueueing errored packet 361245 at time 11921
Additional hops: 1882
Set signal latency stall time: 4
Reenqueueing errored packet 419382 at time 11947
Additional hops: 1887
Set signal latency stall time: 10
Reenqueueing errored packet 419900 at time 11986
Additional hops: 1894
Set signal latency stall time: 14
Additional hops: 1902
Set signal latency stall time: 16
Reenqueueing errored packet 403110 at time 12023
Reenqueueing errored packet 377267 at time 12026
Additional hops: 1910
Set signal latency stall time: 16
Reenqueueing errored packet 411522 at time 12136
Additional hops: 1917
Set signal latency stall time: 14
Additional hops: 1923
Set signal latency stall time: 12
Reenqueueing errored packet 387383 at time 12153
Reenqueueing errored packet 375436 at time 12153
Additional hops: 1931
Set signal latency stall time: 16
Additional hops: 1938
Set signal latency stall time: 14
Reenqueueing errored packet 389700 at time 12233
Reenqueueing errored packet 397716 at time 12236
Additional hops: 1949
Set signal latency stall time: 22
Reenqueueing errored packet 366162 at time 12363
Additional hops: 1963
Set signal latency stall time: 28
Additional hops: 1972
Set signal latency stall time: 18
Reenqueueing errored packet 357069 at time 12439
Additional hops: 1976
Set signal latency stall time: 8
Reenqueueing errored packet 367404 at time 12452
Reenqueueing errored packet 436923 at time 12458
Additional hops: 1986
Set signal latency stall time: 20
Additional hops: 1997
Set signal latency stall time: 22
Reenqueueing errored packet 369839 at time 12542
Reenqueueing errored packet 385468 at time 12561
Additional hops: 2007
Set signal latency stall time: 20
Reenqueueing errored packet 381796 at time 12684
Additional hops: 2013
Set signal latency stall time: 12
Reenqueueing errored packet 403427 at time 12716
Additional hops: 2022
Set signal latency stall time: 18
Reenqueueing errored packet 400805 at time 12772
Additional hops: 2030
Set signal latency stall time: 16
Additional hops: 2039
Set signal latency stall time: 18
Reenqueueing errored packet 385659 at time 12805
Reenqueueing errored packet 396538 at time 12820
Additional hops: 2043
Set signal latency stall time: 8
Reenqueueing errored packet 451065 at time 12862
Additional hops: 2054
Set signal latency stall time: 22
Additional hops: 2061
Set signal latency stall time: 14
Reenqueueing errored packet 377523 at time 12908
Reenqueueing errored packet 402628 at time 12914
Additional hops: 2067
Set signal latency stall time: 12
Reenqueueing errored packet 422903 at time 12948
Additional hops: 2073
Set signal latency stall time: 12
Reenqueueing errored packet 445275 at time 12983
Additional hops: 2080
Set signal latency stall time: 14
Additional hops: 2092
Set signal latency stall time: 24
Reenqueueing errored packet 433543 at time 13056
Reenqueueing errored packet 408174 at time 13080
Additional hops: 2096
Set signal latency stall time: 8
Reenqueueing errored packet 461281 at time 13201
Additional hops: 2103
Set signal latency stall time: 14
Reenqueueing errored packet 415514 at time 13393
Additional hops: 2109
Set signal latency stall time: 12
Reenqueueing errored packet 411052 at time 13407
Additional hops: 2114
Set signal latency stall time: 10
Reenqueueing errored packet 441385 at time 13630
Additional hops: 2124
Set signal latency stall time: 20
Reenqueueing errored packet 400478 at time 13667
Additional hops: 2132
Set signal latency stall time: 16
Reenqueueing errored packet 410825 at time 13936
Additional hops: 2138
Set signal latency stall time: 12
Reenqueueing errored packet 468433 at time 14052
Additional hops: 2145
Set signal latency stall time: 14
Additional hops: 2150
Set signal latency stall time: 10
Additional hops: 2159
Set signal latency stall time: 18
Reenqueueing errored packet 442679 at time 14154
Reenqueueing errored packet 449784 at time 14157
Additional hops: 2164
Set signal latency stall time: 10
Reenqueueing errored packet 431008 at time 14170
Additional hops: 2172
Set signal latency stall time: 16
Reenqueueing errored packet 497406 at time 14179
Reenqueueing errored packet 462487 at time 14187
Additional hops: 2175
Set signal latency stall time: 6
Reenqueueing errored packet 465251 at time 14296
Additional hops: 2179
Set signal latency stall time: 8
Reenqueueing errored packet 477296 at time 14317
Additional hops: 2190
Set signal latency stall time: 22
Reenqueueing errored packet 446347 at time 14412
Additional hops: 2196
Set signal latency stall time: 12
Reenqueueing errored packet 471551 at time 14515
Additional hops: 2200
Set signal latency stall time: 8
Reenqueueing errored packet 453341 at time 14536
Additional hops: 2206
Set signal latency stall time: 12
Reenqueueing errored packet 474785 at time 14555
Additional hops: 2215
Set signal latency stall time: 18
Reenqueueing errored packet 447107 at time 14584
Additional hops: 2222
Set signal latency stall time: 14
Additional hops: 2227
Set signal latency stall time: 10
Reenqueueing errored packet 435511 at time 14609
Reenqueueing errored packet 432674 at time 14613
Additional hops: 2235
Set signal latency stall time: 16
Reenqueueing errored packet 452555 at time 14718
Additional hops: 2241
Set signal latency stall time: 12
Reenqueueing errored packet 446736 at time 14841
Additional hops: 2248
Set signal latency stall time: 14
Reenqueueing errored packet 457606 at time 14859
Additional hops: 2252
Set signal latency stall time: 8
Reenqueueing errored packet 494623 at time 14881
Additional hops: 2255
Set signal latency stall time: 6
Reenqueueing errored packet 507501 at time 14958
Additional hops: 2259
Set signal latency stall time: 8
Reenqueueing errored packet 488085 at time 14968
Additional hops: 2267
Set signal latency stall time: 16
Reenqueueing errored packet 518642 at time 14995
Additional hops: 2274
Set signal latency stall time: 14
Reenqueueing errored packet 444796 at time 15130
Additional hops: 2282
Set signal latency stall time: 16
Reenqueueing errored packet 481508 at time 15160
Additional hops: 2293
Set signal latency stall time: 22
Reenqueueing errored packet 467859 at time 15188
Additional hops: 2297
Set signal latency stall time: 8
Additional hops: 2304
Set signal latency stall time: 14
Reenqueueing errored packet 505809 at time 15206
Reenqueueing errored packet 495963 at time 15216
Additional hops: 2314
Set signal latency stall time: 20
Additional hops: 2326
Set signal latency stall time: 24
Reenqueueing errored packet 499334 at time 15252
Reenqueueing errored packet 447847 at time 15270
Additional hops: 2335
Set signal latency stall time: 18
Reenqueueing errored packet 463037 at time 15378
Additional hops: 2344
Set signal latency stall time: 18
Reenqueueing errored packet 468608 at time 15398
Additional hops: 2352
Set signal latency stall time: 16
Additional hops: 2357
Set signal latency stall time: 10
Reenqueueing errored packet 468412 at time 15448
Additional hops: 2363
Set signal latency stall time: 12
Reenqueueing errored packet 524829 at time 15457
Reenqueueing errored packet 513221 at time 15461
Additional hops: 2369
Set signal latency stall time: 12
Reenqueueing errored packet 515665 at time 15509
Additional hops: 2374
Set signal latency stall time: 10
Reenqueueing errored packet 506404 at time 15522
Additional hops: 2380
Set signal latency stall time: 12
Reenqueueing errored packet 528211 at time 15559
Additional hops: 2386
Set signal latency stall time: 12
Reenqueueing errored packet 494360 at time 15622
Additional hops: 2389
Set signal latency stall time: 6
Additional hops: 2393
Set signal latency stall time: 8
Reenqueueing errored packet 491821 at time 15647
Reenqueueing errored packet 519928 at time 15651
Additional hops: 2400
Set signal latency stall time: 14
Additional hops: 2407
Set signal latency stall time: 14
Reenqueueing errored packet 516888 at time 15822
Additional hops: 2416
Set signal latency stall time: 18
Additional hops: 2424
Set signal latency stall time: 16
Reenqueueing errored packet 502098 at time 15885
Reenqueueing errored packet 529188 at time 15886
Additional hops: 2434
Set signal latency stall time: 20
Additional hops: 2439
Set signal latency stall time: 10
Reenqueueing errored packet 543943 at time 16004
Reenqueueing errored packet 470338 at time 16006
Additional hops: 2449
Set signal latency stall time: 20
Additional hops: 2455
Set signal latency stall time: 12
Reenqueueing errored packet 508609 at time 16047
Additional hops: 2462
Set signal latency stall time: 14
Reenqueueing errored packet 527934 at time 16062
Additional hops: 2466
Set signal latency stall time: 8
Reenqueueing errored packet 527683 at time 16077
Additional hops: 2476
Set signal latency stall time: 20
Reenqueueing errored packet 474163 at time 16155
Additional hops: 2482
Set signal latency stall time: 12
Reenqueueing errored packet 525490 at time 16185
Additional hops: 2488
Set signal latency stall time: 12
Reenqueueing errored packet 552194 at time 16245
Additional hops: 2495
Set signal latency stall time: 14
Additional hops: 2500
Set signal latency stall time: 10
Reenqueueing errored packet 528094 at time 16290
Reenqueueing errored packet 571708 at time 16297
Additional hops: 2509
Set signal latency stall time: 18
Reenqueueing errored packet 521575 at time 16360
Additional hops: 2510
Set signal latency stall time: 2
Reenqueueing errored packet 577818 at time 16445
Additional hops: 2512
Set signal latency stall time: 4
Reenqueueing errored packet 560895 at time 16468
Additional hops: 2515
Set signal latency stall time: 6
Reenqueueing errored packet 565337 at time 16530
Additional hops: 2525
Set signal latency stall time: 20
Reenqueueing errored packet 497556 at time 16604
Additional hops: 2535
Set signal latency stall time: 20
Reenqueueing errored packet 461802 at time 16635
Additional hops: 2542
Set signal latency stall time: 14
Reenqueueing errored packet 495182 at time 16683
Additional hops: 2552
Set signal latency stall time: 20
Reenqueueing errored packet 546829 at time 16724
Additional hops: 2558
Set signal latency stall time: 12
Reenqueueing errored packet 553051 at time 16863
Additional hops: 2565
Set signal latency stall time: 14
Reenqueueing errored packet 521522 at time 16975
Additional hops: 2575
Set signal latency stall time: 20
Reenqueueing errored packet 567908 at time 17100
Additional hops: 2584
Set signal latency stall time: 18
Reenqueueing errored packet 524093 at time 17122
Additional hops: 2587
Set signal latency stall time: 6
Reenqueueing errored packet 587473 at time 17242
Additional hops: 2592
Set signal latency stall time: 10
Reenqueueing errored packet 540068 at time 17354
Additional hops: 2603
Set signal latency stall time: 22
Reenqueueing errored packet 554062 at time 17432
Additional hops: 2609
Set signal latency stall time: 12
Reenqueueing errored packet 574268 at time 17458
Additional hops: 2620
Set signal latency stall time: 22
Reenqueueing errored packet 541210 at time 17548
Additional hops: 2628
Set signal latency stall time: 16
Reenqueueing errored packet 602130 at time 17655
Additional hops: 2634
Set signal latency stall time: 12
Reenqueueing errored packet 602789 at time 17700
Additional hops: 2641
Set signal latency stall time: 14
Reenqueueing errored packet 603576 at time 17735
Additional hops: 2643
Set signal latency stall time: 4
Reenqueueing errored packet 622248 at time 17753
Additional hops: 2650
Set signal latency stall time: 14
Reenqueueing errored packet 563338 at time 17808
Additional hops: 2656
Set signal latency stall time: 12
Reenqueueing errored packet 622741 at time 17867
Additional hops: 2664
Set signal latency stall time: 16
Additional hops: 2672
Set signal latency stall time: 16
Reenqueueing errored packet 572374 at time 17888
Reenqueueing errored packet 608172 at time 17891
Additional hops: 2679
Set signal latency stall time: 14
Reenqueueing errored packet 561524 at time 17908
Additional hops: 2686
Set signal latency stall time: 14
Reenqueueing errored packet 598122 at time 18024
Additional hops: 2689
Set signal latency stall time: 6
Additional hops: 2701
Set signal latency stall time: 24
Additional hops: 2711
Set signal latency stall time: 20
Additional hops: 2718
Set signal latency stall time: 14
Reenqueueing errored packet 582055 at time 18154
Reenqueueing errored packet 580350 at time 18161
Additional hops: 2731
Set signal latency stall time: 26
Reenqueueing errored packet 536869 at time 18226
Additional hops: 2736
Set signal latency stall time: 10
Reenqueueing errored packet 562103 at time 18277
Additional hops: 2745
Set signal latency stall time: 18
Additional hops: 2750
Set signal latency stall time: 10
Reenqueueing errored packet 611970 at time 18301
Additional hops: 2758
Set signal latency stall time: 16
Reenqueueing errored packet 616873 at time 18387
Additional hops: 2764
Set signal latency stall time: 12
Additional hops: 2769
Set signal latency stall time: 10
Reenqueueing errored packet 631791 at time 18419
Additional hops: 2775
Set signal latency stall time: 12
Reenqueueing errored packet 602583 at time 18443
Additional hops: 2781
Set signal latency stall time: 12
Reenqueueing errored packet 614191 at time 18466
Additional hops: 2789
Set signal latency stall time: 16
Additional hops: 2800
Set signal latency stall time: 22
Reenqueueing errored packet 564105 at time 18540
Additional hops: 2805
Set signal latency stall time: 10
Additional hops: 2816
Set signal latency stall time: 22
Reenqueueing errored packet 614041 at time 18572
Reenqueueing errored packet 542258 at time 18592
Additional hops: 2822
Set signal latency stall time: 12
Reenqueueing errored packet 650008 at time 18664
Additional hops: 2827
Set signal latency stall time: 10
Reenqueueing errored packet 633610 at time 18684
Additional hops: 2835
Set signal latency stall time: 16
Additional hops: 2844
Set signal latency stall time: 18
Additional hops: 2850
Set signal latency stall time: 12
Reenqueueing errored packet 617833 at time 18704
Reenqueueing errored packet 616915 at time 18710
Additional hops: 2854
Set signal latency stall time: 8
Additional hops: 2859
Set signal latency stall time: 10
Reenqueueing errored packet 620880 at time 18754
Reenqueueing errored packet 644419 at time 18759
Additional hops: 2865
Set signal latency stall time: 12
Reenqueueing errored packet 604988 at time 18775
Additional hops: 2878
Set signal latency stall time: 26
Reenqueueing errored packet 559363 at time 18819
Additional hops: 2879
Set signal latency stall time: 2
Reenqueueing errored packet 658956 at time 18823
Additional hops: 2888
Set signal latency stall time: 18
Reenqueueing errored packet 570396 at time 18843
Additional hops: 2893
Set signal latency stall time: 10
Reenqueueing errored packet 648250 at time 19039
Additional hops: 2906
Set signal latency stall time: 26
Additional hops: 2913
Set signal latency stall time: 14
Reenqueueing errored packet 594152 at time 19141
Reenqueueing errored packet 550493 at time 19146
Additional hops: 2918
Set signal latency stall time: 10
Reenqueueing errored packet 655201 at time 19180
Additional hops: 2925
Set signal latency stall time: 14
Reenqueueing errored packet 658384 at time 19249
Additional hops: 2934
Set signal latency stall time: 18
Reenqueueing errored packet 610366 at time 19320
Additional hops: 2941
Set signal latency stall time: 14
Additional hops: 2956
Set signal latency stall time: 30
Reenqueueing errored packet 639940 at time 19374
Reenqueueing errored packet 572036 at time 19402
Additional hops: 2967
Set signal latency stall time: 22
Reenqueueing errored packet 579673 at time 19521
Additional hops: 2973
Set signal latency stall time: 12
Additional hops: 2978
Set signal latency stall time: 10
Reenqueueing errored packet 601997 at time 19554
Additional hops: 2983
Set signal latency stall time: 10
Reenqueueing errored packet 683373 at time 19572
Additional hops: 2989
Set signal latency stall time: 12
Additional hops: 2995
Set signal latency stall time: 12
Reenqueueing errored packet 672173 at time 19692
Additional hops: 3000
Set signal latency stall time: 10
Reenqueueing errored packet 625179 at time 19700
Additional hops: 3011
Set signal latency stall time: 22
Reenqueueing errored packet 652408 at time 19709
Additional hops: 3026
Set signal latency stall time: 30
Additional hops: 3039
Set signal latency stall time: 26
Reenqueueing errored packet 655637 at time 19726
Reenqueueing errored packet 580480 at time 19747
Reenqueueing errored packet 586455 at time 19748
Additional hops: 3048
Set signal latency stall time: 18
Additional hops: 3056
Set signal latency stall time: 16
Reenqueueing errored packet 572412 at time 19800
Reenqueueing errored packet 656711 at time 19815
Additional hops: 3064
Set signal latency stall time: 16
Reenqueueing errored packet 587343 at time 19838
Additional hops: 3075
Set signal latency stall time: 22
Additional hops: 3081
Set signal latency stall time: 12
Additional hops: 3089
Set signal latency stall time: 16
Reenqueueing errored packet 675732 at time 19861
Reenqueueing errored packet 565971 at time 19868
Reenqueueing errored packet 639189 at time 19871
Additional hops: 3098
Set signal latency stall time: 18
Reenqueueing errored packet 642677 at time 19928
Additional hops: 3104
Set signal latency stall time: 12
Reenqueueing errored packet 629698 at time 19984
Class 0:
Packet latency average = 735.469
	minimum = 5
	maximum = 5929
Network latency average = 733.474
	minimum = 5
	maximum = 4256
Slowest packet = 36687
Flit latency average = 733.474
	minimum = 5
	maximum = 4256
Slowest flit = 500551
Fragmentation average = 0
	minimum = 0
	maximum = 0
Injected packet rate average = 0.546193
	minimum = 0.52475 (at node 33)
	maximum = 0.55735 (at node 61)
Accepted packet rate average = 0.505417
	minimum = 0.49625 (at node 21)
	maximum = 0.51785 (at node 39)
Injected flit rate average = 0.546193
	minimum = 0.52475 (at node 33)
	maximum = 0.55735 (at node 61)
Accepted flit rate average= 0.505417
	minimum = 0.49625 (at node 21)
	maximum = 0.51785 (at node 39)
Injected packet length average = 1
Accepted packet length average = 1
Total in-flight flits = 52208 (0 measured)
latency change    = 0.504137
throughput change = 0.006588
Average latency for class 0 exceeded 500 cycles. Aborting simulation.
Too many sample periods needed to converge
Simulation unstable, ending ...
Total run time 80.9757
