BEGIN Configuration File: examples/ecc_mesh88_config_1_0.400_link_4
// $Id$

// Copyright (c) 2007-2015, Trustees of The Leland Stanford Junior University
// All rights reserved.
//
// Redistribution and use in source and binary forms, with or without
// modification, are permitted provided that the following conditions are met:
//
// Redistributions of source code must retain the above copyright notice, this
// list of conditions and the following disclaimer.
// Redistributions in binary form must reproduce the above copyright notice,
// this list of conditions and the following disclaimer in the documentation
// and/or other materials provided with the distribution.
//
// THIS SOFTWARE IS PROVIDED BY THE COPYRIGHT HOLDERS AND CONTRIBUTORS "AS IS"
// AND ANY EXPRESS OR IMPLIED WARRANTIES, INCLUDING, BUT NOT LIMITED TO, THE
// IMPLIED WARRANTIES OF MERCHANTABILITY AND FITNESS FOR A PARTICULAR PURPOSE
// ARE DISCLAIMED. IN NO EVENT SHALL THE COPYRIGHT OWNER OR CONTRIBUTORS BE
// LIABLE FOR ANY DIRECT, INDIRECT, INCIDENTAL, SPECIAL, EXEMPLARY, OR
// CONSEQUENTIAL DAMAGES (INCLUDING, BUT NOT LIMITED TO, PROCUREMENT OF
// SUBSTITUTE GOODS OR SERVICES; LOSS OF USE, DATA, OR PROFITS; OR BUSINESS
// INTERRUPTION) HOWEVER CAUSED AND ON ANY THEORY OF LIABILITY, WHETHER IN
// CONTRACT, STRICT LIABILITY, OR TORT (INCLUDING NEGLIGENCE OR OTHERWISE)
// ARISING IN ANY WAY OUT OF THE USE OF THIS SOFTWARE, EVEN IF ADVISED OF THE
// POSSIBILITY OF SUCH DAMAGE.

// Dragonfly
//




vc_buf_size = 256;


wait_for_tail_credit = 0;

//
// Router architecture
//
vc_allocator = separable_input_first; 
sw_allocator = separable_input_first;
alloc_iters  = 1;

credit_delay   = 2;
routing_delay  = 0;
vc_alloc_delay = 1;
sw_alloc_delay = 1;
st_final_delay = 1;

input_speedup     = 1;
output_speedup    = 1;
internal_speedup  = 2.0;


warmup_periods = 3;
sim_count          = 1;

sample_period  = 10000;  


routing_function = dor;
num_vcs     = 2;

priority = none;
traffic       = uniform; 

injection_rate = 0.4;
packet_size = 1;
injection_rate_uses_flits = 1;

topology = mesh;

k  = 8;
n  = 2;

fer = 4;
ecc = link;

watch_out=-;
//watch_file = watch.txt;

ecc = link;

stats_out = examples/ecc_mesh88_config_1_0.400_link_4.m;

END Configuration File: examples/ecc_mesh88_config_1_0.400_link_4
5
1
Received nack credit for flit 907
Requeued flit 907
Received nack credit for flit 516
Requeued flit 516
10
Received nack credit for flit 1770
Requeued flit 1770
2
Received nack credit for flit 5050
Requeued flit 5050
5
Received nack credit for flit 6336
Requeued flit 6336
1
Received nack credit for flit 8213
Requeued flit 8213
7
Received nack credit for flit 8212
Requeued flit 8212
4
1
Received nack credit for flit 10441
Requeued flit 10441
Received nack credit for flit 10805
Requeued flit 10805
6
Received nack credit for flit 11799
Requeued flit 11799
1
Received nack credit for flit 14718
Requeued flit 14718
1
Received nack credit for flit 16080
Requeued flit 16080
1
Received nack credit for flit 24623
Requeued flit 24623
1
Received nack credit for flit 28202
Requeued flit 28202
1
Received nack credit for flit 30430
Requeued flit 30430
3
Received nack credit for flit 30505
Requeued flit 30505
2
Received nack credit for flit 30834
Requeued flit 30834
2
Received nack credit for flit 37029
Requeued flit 37029
2
10
Received nack credit for flit 38446
Requeued flit 38446
Received nack credit for flit 39081
Requeued flit 39081
5
Received nack credit for flit 39777
Requeued flit 39777
2
Received nack credit for flit 43618
Requeued flit 43618
1
Received nack credit for flit 45641
Requeued flit 45641
1
Received nack credit for flit 46638
Requeued flit 46638
3
Received nack credit for flit 47231
Requeued flit 47231
1
Received nack credit for flit 52175
Requeued flit 52175
1
Received nack credit for flit 53791
Requeued flit 53791
7
Received nack credit for flit 53747
Requeued flit 53747
2
Received nack credit for flit 55569
Requeued flit 55569
11
Received nack credit for flit 60142
Requeued flit 60142
3
Received nack credit for flit 63048
Requeued flit 63048
1
Received nack credit for flit 64505
Requeued flit 64505
5
Received nack credit for flit 66783
Requeued flit 66783
1
Received nack credit for flit 70033
Requeued flit 70033
2
Received nack credit for flit 70269
Requeued flit 70269
3
Received nack credit for flit 71000
Requeued flit 71000
2
Received nack credit for flit 71526
Requeued flit 71526
7
Received nack credit for flit 73186
Requeued flit 73186
2
Received nack credit for flit 74186
Requeued flit 74186
5
Received nack credit for flit 76777
Requeued flit 76777
6
Received nack credit for flit 80449
Requeued flit 80449
6
1
Received nack credit for flit 80888
Requeued flit 80888
3
Received nack credit for flit 81328
Requeued flit 81328
Received nack credit for flit 81256
Requeued flit 81256
4
Received nack credit for flit 81773
Requeued flit 81773
1
Received nack credit for flit 82552
Requeued flit 82552
4
Received nack credit for flit 86102
Requeued flit 86102
1
1
Received nack credit for flit 86791
Requeued flit 86791
Received nack credit for flit 86889
Requeued flit 86889
8
Received nack credit for flit 86714
Requeued flit 86714
5
Received nack credit for flit 92969
Requeued flit 92969
3
Received nack credit for flit 99986
Requeued flit 99986
1
Received nack credit for flit 103780
Requeued flit 103780
6
Received nack credit for flit 103754
Requeued flit 103754
6
Received nack credit for flit 104651
Requeued flit 104651
5
Received nack credit for flit 105641
Requeued flit 105641
7
Received nack credit for flit 106410
Requeued flit 106410
6
Received nack credit for flit 107008
Requeued flit 107008
1
1
Received nack credit for flit 111273
Requeued flit 111273
Received nack credit for flit 111320
Requeued flit 111320
2
Received nack credit for flit 112267
Requeued flit 112267
1
Received nack credit for flit 113447
Requeued flit 113447
2
Received nack credit for flit 114087
Requeued flit 114087
4
Received nack credit for flit 114156
Requeued flit 114156
4
Received nack credit for flit 115300
Requeued flit 115300
1
3
Received nack credit for flit 122493
Requeued flit 122493
Received nack credit for flit 122308
Requeued flit 122308
1
Received nack credit for flit 123936
Requeued flit 123936
1
Received nack credit for flit 124104
Requeued flit 124104
7
Received nack credit for flit 127727
Requeued flit 127727
3
Received nack credit for flit 128491
Requeued flit 128491
4
Received nack credit for flit 129463
Requeued flit 129463
1
Received nack credit for flit 129864
Requeued flit 129864
1
Received nack credit for flit 132033
Requeued flit 132033
1
Received nack credit for flit 133776
Requeued flit 133776
2
3
Received nack credit for flit 135118
Requeued flit 135118
Received nack credit for flit 135136
Requeued flit 135136
5
Received nack credit for flit 135225
Requeued flit 135225
4
Received nack credit for flit 136940
Requeued flit 136940
6
1
Received nack credit for flit 137694
Requeued flit 137694
Received nack credit for flit 138200
Requeued flit 138200
1
Received nack credit for flit 141148
Requeued flit 141148
1
Received nack credit for flit 142018
Requeued flit 142018
5
Received nack credit for flit 142924
Requeued flit 142924
1
Received nack credit for flit 145510
Requeued flit 145510
7
Received nack credit for flit 145817
Requeued flit 145817
1
Received nack credit for flit 148597
Requeued flit 148597
1
Received nack credit for flit 148840
Requeued flit 148840
7
Received nack credit for flit 151482
Requeued flit 151482
4
Received nack credit for flit 154133
Requeued flit 154133
3
3
Received nack credit for flit 154383
Requeued flit 154383
Received nack credit for flit 154647
Requeued flit 154647
1
Received nack credit for flit 155077
Requeued flit 155077
9
Received nack credit for flit 156162
Requeued flit 156162
1
Received nack credit for flit 157944
Requeued flit 157944
4
Received nack credit for flit 158041
Requeued flit 158041
1
Received nack credit for flit 159316
Requeued flit 159316
4
Received nack credit for flit 162332
Requeued flit 162332
11
Received nack credit for flit 162868
Requeued flit 162868
3
Received nack credit for flit 165330
Requeued flit 165330
5
Received nack credit for flit 166639
Requeued flit 166639
5
3
Received nack credit for flit 168618
Requeued flit 168618
Received nack credit for flit 168823
Requeued flit 168823
2
Received nack credit for flit 169489
Requeued flit 169489
1
Received nack credit for flit 170097
Requeued flit 170097
6
Received nack credit for flit 170506
Requeued flit 170506
1
Received nack credit for flit 172026
Requeued flit 172026
1
Received nack credit for flit 173614
Requeued flit 173614
7
Received nack credit for flit 176504
Requeued flit 176504
6
Received nack credit for flit 177568
Requeued flit 177568
1
Received nack credit for flit 178329
Requeued flit 178329
1
Received nack credit for flit 181728
Requeued flit 181728
2
Received nack credit for flit 183170
Requeued flit 183170
4
Received nack credit for flit 183894
Requeued flit 183894
1
Received nack credit for flit 184533
Requeued flit 184533
4
Received nack credit for flit 185894
Requeued flit 185894
3
Received nack credit for flit 188444
Requeued flit 188444
7
1
Received nack credit for flit 188450
Requeued flit 188450
5
Received nack credit for flit 188999
Requeued flit 188999
Received nack credit for flit 188753
Requeued flit 188753
1
Received nack credit for flit 189693
Requeued flit 189693
4
Received nack credit for flit 189829
Requeued flit 189829
10
Received nack credit for flit 191689
Requeued flit 191689
1
Received nack credit for flit 193132
Requeued flit 193132
1
Received nack credit for flit 195300
Requeued flit 195300
1
1
Received nack credit for flit 197338
Requeued flit 197338
Received nack credit for flit 197407
Requeued flit 197407
4
Received nack credit for flit 197347
Requeued flit 197347
5
Received nack credit for flit 197626
Requeued flit 197626
1
5
Received nack credit for flit 200254
Requeued flit 200254
Received nack credit for flit 199818
Requeued flit 199818
2
Received nack credit for flit 202465
Requeued flit 202465
3
Received nack credit for flit 206616
Requeued flit 206616
3
Received nack credit for flit 207144
Requeued flit 207144
2
Received nack credit for flit 208480
Requeued flit 208480
1
Received nack credit for flit 209594
Requeued flit 209594
1
Received nack credit for flit 210809
Requeued flit 210809
2
Received nack credit for flit 212639
Requeued flit 212639
7
1
Received nack credit for flit 213421
Requeued flit 213421
Received nack credit for flit 214157
Requeued flit 214157
1
Received nack credit for flit 214624
Requeued flit 214624
6
Received nack credit for flit 217777
Requeued flit 217777
4
Received nack credit for flit 218899
Requeued flit 218899
4
Received nack credit for flit 220201
Requeued flit 220201
1
Received nack credit for flit 223369
Requeued flit 223369
8
Received nack credit for flit 225869
Requeued flit 225869
1
Received nack credit for flit 228564
Requeued flit 228564
3
Received nack credit for flit 230098
Requeued flit 230098
8
Received nack credit for flit 231460
Requeued flit 231460
1
Received nack credit for flit 232453
Requeued flit 232453
1
Received nack credit for flit 232990
Requeued flit 232990
4
4
Received nack credit for flit 234357
Requeued flit 234357
1
Received nack credit for flit 234429
Requeued flit 234429
Received nack credit for flit 234849
Requeued flit 234849
5
Received nack credit for flit 235541
Requeued flit 235541
8
Received nack credit for flit 235549
Requeued flit 235549
2
Received nack credit for flit 236037
Requeued flit 236037
1
Received nack credit for flit 236530
Requeued flit 236530
2
Received nack credit for flit 236910
Requeued flit 236910
3
Received nack credit for flit 237130
Requeued flit 237130
1
Received nack credit for flit 238276
Requeued flit 238276
7
Received nack credit for flit 238551
Requeued flit 238551
1
Received nack credit for flit 240274
Requeued flit 240274
5
Received nack credit for flit 241744
Requeued flit 241744
5
Received nack credit for flit 243705
Requeued flit 243705
2
Received nack credit for flit 245681
Requeued flit 245681
2
Received nack credit for flit 248078
Requeued flit 248078
1
Received nack credit for flit 249034
Requeued flit 249034
5
Received nack credit for flit 249628
Requeued flit 249628
1
Received nack credit for flit 251637
Requeued flit 251637
1
Received nack credit for flit 252840
Requeued flit 252840
1
Received nack credit for flit 253550
Requeued flit 253550
Class 0:
Packet latency average = 24.011
	minimum = 5
	maximum = 76
Network latency average = 24.011
	minimum = 5
	maximum = 76
Slowest packet = 72107
Flit latency average = 24.011
	minimum = 5
	maximum = 76
Slowest flit = 72107
Fragmentation average = 0
	minimum = 0
	maximum = 0
Injected packet rate average = 0.399491
	minimum = 0.3911 (at node 61)
	maximum = 0.4084 (at node 62)
Accepted packet rate average = 0.398539
	minimum = 0.3862 (at node 52)
	maximum = 0.4119 (at node 28)
Injected flit rate average = 0.399491
	minimum = 0.3911 (at node 61)
	maximum = 0.4084 (at node 62)
Accepted flit rate average= 0.398539
	minimum = 0.3862 (at node 52)
	maximum = 0.4119 (at node 28)
Injected packet length average = 1
Accepted packet length average = 1
Total in-flight flits = 609 (0 measured)
latency change    = 1
throughput change = 1
7
Received nack credit for flit 255082
Requeued flit 255082
2
Received nack credit for flit 257541
Requeued flit 257541
2
Received nack credit for flit 257797
Requeued flit 257797
1
Received nack credit for flit 259847
Requeued flit 259847
1
Received nack credit for flit 261921
Requeued flit 261921
1
Received nack credit for flit 262460
Requeued flit 262460
1
Received nack credit for flit 262973
Requeued flit 262973
8
Received nack credit for flit 265559
Requeued flit 265559
4
Received nack credit for flit 266447
Requeued flit 266447
2
Received nack credit for flit 266787
Requeued flit 266787
10
Received nack credit for flit 266860
Requeued flit 266860
5
Received nack credit for flit 267615
Requeued flit 267615
8
Received nack credit for flit 269335
Requeued flit 269335
4
Received nack credit for flit 270635
Requeued flit 270635
3
Received nack credit for flit 273426
Requeued flit 273426
6
Received nack credit for flit 274249
Requeued flit 274249
10
Received nack credit for flit 276766
Requeued flit 276766
3
Received nack credit for flit 278316
Requeued flit 278316
1
Received nack credit for flit 281639
Requeued flit 281639
4
Received nack credit for flit 282580
Requeued flit 282580
2
Received nack credit for flit 283013
Requeued flit 283013
7
Received nack credit for flit 284331
Requeued flit 284331
1
Received nack credit for flit 286700
Requeued flit 286700
1
Received nack credit for flit 287186
Requeued flit 287186
1
Received nack credit for flit 288375
Requeued flit 288375
5
Received nack credit for flit 290328
Requeued flit 290328
4
3
Received nack credit for flit 294674
Requeued flit 294674
Received nack credit for flit 294746
Requeued flit 294746
2
Received nack credit for flit 295663
Requeued flit 295663
6
Received nack credit for flit 299889
Requeued flit 299889
3
Received nack credit for flit 300568
Requeued flit 300568
7
Received nack credit for flit 302749
Requeued flit 302749
1
Received nack credit for flit 304981
Requeued flit 304981
2
Received nack credit for flit 311407
Requeued flit 311407
3
Received nack credit for flit 312668
Requeued flit 312668
7
Received nack credit for flit 312298
Requeued flit 312298
5
Received nack credit for flit 314747
Requeued flit 314747
8
Received nack credit for flit 315165
Requeued flit 315165
3
Received nack credit for flit 317260
Requeued flit 317260
1
Received nack credit for flit 318094
Requeued flit 318094
2
Received nack credit for flit 318720
Requeued flit 318720
5
Received nack credit for flit 319833
Requeued flit 319833
1
Received nack credit for flit 321204
Requeued flit 321204
1
Received nack credit for flit 321539
Requeued flit 321539
2
Received nack credit for flit 322007
Requeued flit 322007
3
Received nack credit for flit 328183
Requeued flit 328183
1
Received nack credit for flit 333097
Requeued flit 333097
6
Received nack credit for flit 333763
Requeued flit 333763
3
Received nack credit for flit 338414
Requeued flit 338414
4
4
Received nack credit for flit 340421
Requeued flit 340421
Received nack credit for flit 340493
Requeued flit 340493
7
Received nack credit for flit 340851
Requeued flit 340851
4
Received nack credit for flit 341977
Requeued flit 341977
4
Received nack credit for flit 342180
Requeued flit 342180
1
Received nack credit for flit 343528
Requeued flit 343528
1
Received nack credit for flit 345354
Requeued flit 345354
1
Received nack credit for flit 346273
Requeued flit 346273
5
Received nack credit for flit 346614
Requeued flit 346614
5
Received nack credit for flit 348991
Requeued flit 348991
4
4
Received nack credit for flit 353975
Requeued flit 353975
Received nack credit for flit 353948
Requeued flit 353948
3
Received nack credit for flit 356689
Requeued flit 356689
5
Received nack credit for flit 358207
Requeued flit 358207
2
Received nack credit for flit 359231
Requeued flit 359231
5
Received nack credit for flit 362446
Requeued flit 362446
6
Received nack credit for flit 362815
Requeued flit 362815
5
Received nack credit for flit 365546
Requeued flit 365546
5
4
Received nack credit for flit 365760
Requeued flit 365760
Received nack credit for flit 365955
Requeued flit 365955
6
Received nack credit for flit 372093
Requeued flit 372093
7
Received nack credit for flit 372513
Requeued flit 372513
1
6
Received nack credit for flit 373266
Requeued flit 373266
Received nack credit for flit 372892
Requeued flit 372892
1
Received nack credit for flit 374672
Requeued flit 374672
2
Received nack credit for flit 380971
Requeued flit 380971
1
Received nack credit for flit 381211
Requeued flit 381211
3
Received nack credit for flit 383290
Requeued flit 383290
4
Received nack credit for flit 384465
Requeued flit 384465
1
Received nack credit for flit 384990
Requeued flit 384990
4
Received nack credit for flit 386681
Requeued flit 386681
1
Received nack credit for flit 387440
Requeued flit 387440
7
Received nack credit for flit 387189
Requeued flit 387189
3
Received nack credit for flit 387886
Requeued flit 387886
1
Received nack credit for flit 388527
Requeued flit 388527
4
Received nack credit for flit 388613
Requeued flit 388613
2
Received nack credit for flit 390506
Requeued flit 390506
1
Received nack credit for flit 391056
Requeued flit 391056
1
1
Received nack credit for flit 391375
Requeued flit 391375
3
Received nack credit for flit 391479
Requeued flit 391479
Received nack credit for flit 391387
Requeued flit 391387
2
Received nack credit for flit 401147
Requeued flit 401147
1
Received nack credit for flit 404391
Requeued flit 404391
2
Received nack credit for flit 405039
Requeued flit 405039
4
Received nack credit for flit 407540
Requeued flit 407540
5
Received nack credit for flit 410988
Requeued flit 410988
1
Received nack credit for flit 416693
Requeued flit 416693
1
7
1
Received nack credit for flit 417735
Requeued flit 417735
Received nack credit for flit 417768
Requeued flit 417768
Received nack credit for flit 417217
Requeued flit 417217
8
Received nack credit for flit 418261
Requeued flit 418261
1
Received nack credit for flit 420914
Requeued flit 420914
1
Received nack credit for flit 422455
Requeued flit 422455
4
Received nack credit for flit 425559
Requeued flit 425559
1
Received nack credit for flit 426871
Requeued flit 426871
1
Received nack credit for flit 427465
Requeued flit 427465
6
Received nack credit for flit 428080
Requeued flit 428080
1
Received nack credit for flit 430267
Requeued flit 430267
3
Received nack credit for flit 436439
Requeued flit 436439
5
Received nack credit for flit 437315
Requeued flit 437315
1
Received nack credit for flit 438075
Requeued flit 438075
2
Received nack credit for flit 439712
Requeued flit 439712
1
Received nack credit for flit 440860
Requeued flit 440860
1
Received nack credit for flit 441200
Requeued flit 441200
2
Received nack credit for flit 441310
Requeued flit 441310
1
Received nack credit for flit 443041
Requeued flit 443041
1
Received nack credit for flit 445862
Requeued flit 445862
4
Received nack credit for flit 445695
Requeued flit 445695
1
Received nack credit for flit 446172
Requeued flit 446172
1
Received nack credit for flit 448641
Requeued flit 448641
4
Received nack credit for flit 453003
Requeued flit 453003
1
Received nack credit for flit 454197
Requeued flit 454197
3
Received nack credit for flit 457124
Requeued flit 457124
1
Received nack credit for flit 459259
Requeued flit 459259
4
Received nack credit for flit 463389
Requeued flit 463389
2
Received nack credit for flit 465244
Requeued flit 465244
1
Received nack credit for flit 465770
Requeued flit 465770
6
Received nack credit for flit 465429
Requeued flit 465429
1
Received nack credit for flit 466310
Requeued flit 466310
7
Received nack credit for flit 470477
Requeued flit 470477
3
Received nack credit for flit 473240
Requeued flit 473240
1
Received nack credit for flit 477978
Requeued flit 477978
4
Received nack credit for flit 478840
Requeued flit 478840
1
Received nack credit for flit 481349
Requeued flit 481349
1
Received nack credit for flit 484861
Requeued flit 484861
8
7
Received nack credit for flit 485511
Requeued flit 485511
Received nack credit for flit 485746
Requeued flit 485746
7
Received nack credit for flit 485880
Requeued flit 485880
4
Received nack credit for flit 487332
Requeued flit 487332
5
Received nack credit for flit 489299
Requeued flit 489299
1
Received nack credit for flit 489965
Requeued flit 489965
1
8
1
Received nack credit for flit 490463
Requeued flit 490463
Received nack credit for flit 490943
Requeued flit 490943
Received nack credit for flit 491125
Requeued flit 491125
12
Received nack credit for flit 491127
Requeued flit 491127
1
Received nack credit for flit 493561
Requeued flit 493561
7
Received nack credit for flit 494431
Requeued flit 494431
7
Received nack credit for flit 496154
Requeued flit 496154
4
Received nack credit for flit 498645
Requeued flit 498645
1
Received nack credit for flit 499427
Requeued flit 499427
3
Received nack credit for flit 499571
Requeued flit 499571
2
Received nack credit for flit 500226
Requeued flit 500226
8
Received nack credit for flit 500154
Requeued flit 500154
3
Received nack credit for flit 501975
Requeued flit 501975
2
Received nack credit for flit 502585
Requeued flit 502585
4
8
2
Received nack credit for flit 503004
Requeued flit 503004
Received nack credit for flit 502776
Requeued flit 502776
Received nack credit for flit 503292
Requeued flit 503292
1
Received nack credit for flit 504716
Requeued flit 504716
8
Received nack credit for flit 504461
Requeued flit 504461
1
Received nack credit for flit 507046
Requeued flit 507046
Class 0:
Packet latency average = 24.0153
	minimum = 5
	maximum = 76
Network latency average = 24.0153
	minimum = 5
	maximum = 76
Slowest packet = 72107
Flit latency average = 24.0153
	minimum = 5
	maximum = 76
Slowest flit = 72107
Fragmentation average = 0
	minimum = 0
	maximum = 0
Injected packet rate average = 0.399823
	minimum = 0.39165 (at node 28)
	maximum = 0.40695 (at node 22)
Accepted packet rate average = 0.399359
	minimum = 0.39205 (at node 25)
	maximum = 0.41015 (at node 28)
Injected flit rate average = 0.399823
	minimum = 0.39165 (at node 28)
	maximum = 0.40695 (at node 22)
Accepted flit rate average= 0.399359
	minimum = 0.39205 (at node 25)
	maximum = 0.41015 (at node 28)
Injected packet length average = 1
Accepted packet length average = 1
Total in-flight flits = 594 (0 measured)
latency change    = 0.000175414
throughput change = 0.00205407
1
Received nack credit for flit 511810
Requeued flit 511810
2
Received nack credit for flit 512650
Requeued flit 512650
1
Received nack credit for flit 515564
Requeued flit 515564
2
Received nack credit for flit 518331
Requeued flit 518331
1
Received nack credit for flit 520457
Requeued flit 520457
6
Received nack credit for flit 525591
Requeued flit 525591
6
1
Received nack credit for flit 527008
Requeued flit 527008
Received nack credit for flit 527588
Requeued flit 527588
1
Received nack credit for flit 528036
Requeued flit 528036
2
Received nack credit for flit 530384
Requeued flit 530384
2
Received nack credit for flit 531498
Requeued flit 531498
1
Received nack credit for flit 532132
Requeued flit 532132
1
Received nack credit for flit 533169
Requeued flit 533169
5
Received nack credit for flit 534429
Requeued flit 534429
4
Received nack credit for flit 535352
Requeued flit 535352
5
Received nack credit for flit 538762
Requeued flit 538762
5
Received nack credit for flit 541607
Requeued flit 541607
2
Received nack credit for flit 543656
Requeued flit 543656
8
Received nack credit for flit 543140
Requeued flit 543140
10
Received nack credit for flit 545437
Requeued flit 545437
2
Received nack credit for flit 546978
Requeued flit 546978
2
Received nack credit for flit 547984
Requeued flit 547984
8
Received nack credit for flit 548891
Requeued flit 548891
1
4
Received nack credit for flit 549532
Requeued flit 549532
Received nack credit for flit 549764
Requeued flit 549764
6
Received nack credit for flit 550940
Requeued flit 550940
3
Received nack credit for flit 551388
Requeued flit 551388
6
Received nack credit for flit 551967
Requeued flit 551967
9
Received nack credit for flit 552247
Requeued flit 552247
3
2
Received nack credit for flit 555029
Requeued flit 555029
Received nack credit for flit 554891
Requeued flit 554891
1
Received nack credit for flit 557641
Requeued flit 557641
6
Received nack credit for flit 560064
Requeued flit 560064
1
Received nack credit for flit 562502
Requeued flit 562502
3
Received nack credit for flit 562789
Requeued flit 562789
1
Received nack credit for flit 568446
Requeued flit 568446
5
Received nack credit for flit 568361
Requeued flit 568361
6
Received nack credit for flit 569633
Requeued flit 569633
3
3
Received nack credit for flit 571575
Requeued flit 571575
Received nack credit for flit 571720
Requeued flit 571720
10
Received nack credit for flit 573435
Requeued flit 573435
1
Received nack credit for flit 578351
Requeued flit 578351
2
Received nack credit for flit 579659
Requeued flit 579659
1
1
Received nack credit for flit 581063
Requeued flit 581063
Received nack credit for flit 581093
Requeued flit 581093
2
5
Received nack credit for flit 581608
Requeued flit 581608
Received nack credit for flit 581933
Requeued flit 581933
2
Received nack credit for flit 582237
Requeued flit 582237
2
Received nack credit for flit 582654
Requeued flit 582654
1
Received nack credit for flit 583912
Requeued flit 583912
5
Received nack credit for flit 588961
Requeued flit 588961
2
1
Received nack credit for flit 592138
Requeued flit 592138
Received nack credit for flit 592330
Requeued flit 592330
1
Received nack credit for flit 596457
Requeued flit 596457
2
Received nack credit for flit 596850
Requeued flit 596850
5
Received nack credit for flit 597871
Requeued flit 597871
4
Received nack credit for flit 598451
Requeued flit 598451
1
Received nack credit for flit 599634
Requeued flit 599634
1
Received nack credit for flit 599947
Requeued flit 599947
1
Received nack credit for flit 605387
Requeued flit 605387
3
Received nack credit for flit 605570
Requeued flit 605570
8
Received nack credit for flit 608652
Requeued flit 608652
3
Received nack credit for flit 609490
Requeued flit 609490
5
Received nack credit for flit 609718
Requeued flit 609718
1
Received nack credit for flit 612501
Requeued flit 612501
6
Received nack credit for flit 612547
Requeued flit 612547
1
Received nack credit for flit 614281
Requeued flit 614281
6
Received nack credit for flit 614426
Requeued flit 614426
3
Received nack credit for flit 619586
Requeued flit 619586
2
Received nack credit for flit 619904
Requeued flit 619904
1
Received nack credit for flit 621344
Requeued flit 621344
6
Received nack credit for flit 624326
Requeued flit 624326
3
Received nack credit for flit 624831
Requeued flit 624831
3
Received nack credit for flit 631400
Requeued flit 631400
1
Received nack credit for flit 632483
Requeued flit 632483
4
Received nack credit for flit 636068
Requeued flit 636068
1
4
Received nack credit for flit 637075
Requeued flit 637075
Received nack credit for flit 636828
Requeued flit 636828
1
Received nack credit for flit 637821
Requeued flit 637821
2
4
Received nack credit for flit 640561
Requeued flit 640561
Received nack credit for flit 640415
Requeued flit 640415
1
Received nack credit for flit 642243
Requeued flit 642243
1
Received nack credit for flit 643206
Requeued flit 643206
6
Received nack credit for flit 644407
Requeued flit 644407
5
Received nack credit for flit 645177
Requeued flit 645177
1
Received nack credit for flit 646042
Requeued flit 646042
3
Received nack credit for flit 649451
Requeued flit 649451
8
1
Received nack credit for flit 649647
Requeued flit 649647
4
Received nack credit for flit 650328
Requeued flit 650328
Received nack credit for flit 650114
Requeued flit 650114
3
Received nack credit for flit 650879
Requeued flit 650879
3
Received nack credit for flit 652341
Requeued flit 652341
5
Received nack credit for flit 652354
Requeued flit 652354
2
Received nack credit for flit 654412
Requeued flit 654412
5
Received nack credit for flit 654914
Requeued flit 654914
10
Received nack credit for flit 656049
Requeued flit 656049
6
Received nack credit for flit 657782
Requeued flit 657782
3
Received nack credit for flit 658201
Requeued flit 658201
1
Received nack credit for flit 658747
Requeued flit 658747
3
4
Received nack credit for flit 659303
Requeued flit 659303
Received nack credit for flit 659262
Requeued flit 659262
1
Received nack credit for flit 660166
Requeued flit 660166
1
Received nack credit for flit 660432
Requeued flit 660432
1
Received nack credit for flit 660711
Requeued flit 660711
1
Received nack credit for flit 660891
Requeued flit 660891
1
Received nack credit for flit 661102
Requeued flit 661102
1
Received nack credit for flit 662854
Requeued flit 662854
7
Received nack credit for flit 663977
Requeued flit 663977
1
Received nack credit for flit 664745
Requeued flit 664745
4
Received nack credit for flit 665303
Requeued flit 665303
2
Received nack credit for flit 667163
Requeued flit 667163
6
Received nack credit for flit 667575
Requeued flit 667575
4
1
Received nack credit for flit 670913
Requeued flit 670913
Received nack credit for flit 671151
Requeued flit 671151
5
7
Received nack credit for flit 672513
Requeued flit 672513
6
Received nack credit for flit 672353
Requeued flit 672353
Received nack credit for flit 672649
Requeued flit 672649
2
Received nack credit for flit 681380
Requeued flit 681380
3
Received nack credit for flit 685277
Requeued flit 685277
1
5
Received nack credit for flit 686371
Requeued flit 686371
Received nack credit for flit 686947
Requeued flit 686947
3
Received nack credit for flit 687708
Requeued flit 687708
6
4
Received nack credit for flit 688883
Requeued flit 688883
Received nack credit for flit 689042
Requeued flit 689042
5
Received nack credit for flit 691795
Requeued flit 691795
3
Received nack credit for flit 692052
Requeued flit 692052
2
Received nack credit for flit 692635
Requeued flit 692635
3
Received nack credit for flit 692954
Requeued flit 692954
4
Received nack credit for flit 693941
Requeued flit 693941
1
Received nack credit for flit 694492
Requeued flit 694492
2
Received nack credit for flit 696584
Requeued flit 696584
3
Received nack credit for flit 698607
Requeued flit 698607
1
Received nack credit for flit 698985
Requeued flit 698985
1
Received nack credit for flit 699370
Requeued flit 699370
5
Received nack credit for flit 702011
Requeued flit 702011
11
Received nack credit for flit 702064
Requeued flit 702064
6
1
Received nack credit for flit 703192
Requeued flit 703192
Received nack credit for flit 703801
Requeued flit 703801
2
Received nack credit for flit 707196
Requeued flit 707196
1
Received nack credit for flit 708230
Requeued flit 708230
1
Received nack credit for flit 709284
Requeued flit 709284
1
Received nack credit for flit 709845
Requeued flit 709845
2
2
Received nack credit for flit 711308
Requeued flit 711308
Received nack credit for flit 711484
Requeued flit 711484
1
Received nack credit for flit 713887
Requeued flit 713887
5
Received nack credit for flit 716637
Requeued flit 716637
4
Received nack credit for flit 722953
Requeued flit 722953
5
Received nack credit for flit 723630
Requeued flit 723630
2
Received nack credit for flit 724627
Requeued flit 724627
2
Received nack credit for flit 725878
Requeued flit 725878
2
Received nack credit for flit 726621
Requeued flit 726621
1
Received nack credit for flit 728570
Requeued flit 728570
7
Received nack credit for flit 728292
Requeued flit 728292
8
Received nack credit for flit 729828
Requeued flit 729828
5
6
Received nack credit for flit 733466
Requeued flit 733466
Received nack credit for flit 733408
Requeued flit 733408
3
Received nack credit for flit 734395
Requeued flit 734395
1
Received nack credit for flit 738716
Requeued flit 738716
7
Received nack credit for flit 738651
Requeued flit 738651
1
Received nack credit for flit 743453
Requeued flit 743453
6
Received nack credit for flit 743227
Requeued flit 743227
3
4
Received nack credit for flit 750629
Requeued flit 750629
Received nack credit for flit 750655
Requeued flit 750655
1
Received nack credit for flit 754076
Requeued flit 754076
3
Received nack credit for flit 756341
Requeued flit 756341
4
Received nack credit for flit 756972
Requeued flit 756972
1
Received nack credit for flit 758463
Requeued flit 758463
4
Received nack credit for flit 759243
Requeued flit 759243
1
Received nack credit for flit 762280
Requeued flit 762280
1
Received nack credit for flit 765239
Requeued flit 765239
5
Received nack credit for flit 766033
Requeued flit 766033
Class 0:
Packet latency average = 24.0552
	minimum = 5
	maximum = 72
Network latency average = 24.0552
	minimum = 5
	maximum = 72
Slowest packet = 586221
Flit latency average = 24.0552
	minimum = 5
	maximum = 72
Slowest flit = 586221
Fragmentation average = 0
	minimum = 0
	maximum = 0
Injected packet rate average = 0.399913
	minimum = 0.388 (at node 18)
	maximum = 0.4097 (at node 0)
Accepted packet rate average = 0.399873
	minimum = 0.3882 (at node 62)
	maximum = 0.4114 (at node 37)
Injected flit rate average = 0.399913
	minimum = 0.388 (at node 18)
	maximum = 0.4097 (at node 0)
Accepted flit rate average= 0.399873
	minimum = 0.3882 (at node 62)
	maximum = 0.4114 (at node 37)
Injected packet length average = 1
Accepted packet length average = 1
Total in-flight flits = 619 (0 measured)
latency change    = 0.00166004
throughput change = 0.00128556
Warmed up ...Time used is 30000 cycles
1
Received nack credit for flit 769018
Requeued flit 769018
1
Received nack credit for flit 770713
Requeued flit 770713
4
Received nack credit for flit 777877
Requeued flit 777877
3
4
Received nack credit for flit 781674
Requeued flit 781674
Received nack credit for flit 781841
Requeued flit 781841
2
7
Received nack credit for flit 789806
Requeued flit 789806
Received nack credit for flit 789436
Requeued flit 789436
2
Received nack credit for flit 793118
Requeued flit 793118
3
Received nack credit for flit 795114
Requeued flit 795114
6
Received nack credit for flit 795210
Requeued flit 795210
6
Received nack credit for flit 797251
Requeued flit 797251
2
Received nack credit for flit 798348
Requeued flit 798348
3
Received nack credit for flit 798359
Requeued flit 798359
6
Received nack credit for flit 799942
Requeued flit 799942
5
Received nack credit for flit 801759
Requeued flit 801759
6
Received nack credit for flit 803925
Requeued flit 803925
2
Received nack credit for flit 804968
Requeued flit 804968
2
Received nack credit for flit 806367
Requeued flit 806367
2
Received nack credit for flit 809989
Requeued flit 809989
2
Received nack credit for flit 810241
Requeued flit 810241
8
Received nack credit for flit 816451
Requeued flit 816451
3
2
Received nack credit for flit 817486
Requeued flit 817486
Received nack credit for flit 817596
Requeued flit 817596
1
Received nack credit for flit 818169
Requeued flit 818169
1
Received nack credit for flit 818371
Requeued flit 818371
1
Received nack credit for flit 819911
Requeued flit 819911
4
Received nack credit for flit 820377
Requeued flit 820377
3
Received nack credit for flit 821045
Requeued flit 821045
5
Received nack credit for flit 821326
Requeued flit 821326
5
Received nack credit for flit 823032
Requeued flit 823032
1
Received nack credit for flit 828048
Requeued flit 828048
1
Received nack credit for flit 828513
Requeued flit 828513
3
Received nack credit for flit 829447
Requeued flit 829447
1
Received nack credit for flit 833366
Requeued flit 833366
7
Received nack credit for flit 833466
Requeued flit 833466
2
Received nack credit for flit 840107
Requeued flit 840107
4
Received nack credit for flit 840740
Requeued flit 840740
4
4
Received nack credit for flit 841709
Requeued flit 841709
Received nack credit for flit 841936
Requeued flit 841936
5
Received nack credit for flit 843275
Requeued flit 843275
3
Received nack credit for flit 844563
Requeued flit 844563
1
Received nack credit for flit 848890
Requeued flit 848890
1
Received nack credit for flit 849480
Requeued flit 849480
9
Received nack credit for flit 849128
Requeued flit 849128
4
Received nack credit for flit 850074
Requeued flit 850074
1
Received nack credit for flit 853273
Requeued flit 853273
1
Received nack credit for flit 854087
Requeued flit 854087
1
Received nack credit for flit 857861
Requeued flit 857861
5
Received nack credit for flit 857707
Requeued flit 857707
6
Received nack credit for flit 857942
Requeued flit 857942
2
Received nack credit for flit 858448
Requeued flit 858448
4
Received nack credit for flit 860480
Requeued flit 860480
5
Received nack credit for flit 861239
Requeued flit 861239
1
Received nack credit for flit 862995
Requeued flit 862995
4
Received nack credit for flit 863050
Requeued flit 863050
1
Received nack credit for flit 864390
Requeued flit 864390
1
Received nack credit for flit 866952
Requeued flit 866952
5
Received nack credit for flit 869276
Requeued flit 869276
5
Received nack credit for flit 870846
Requeued flit 870846
5
Received nack credit for flit 872867
Requeued flit 872867
7
Received nack credit for flit 877136
Requeued flit 877136
2
Received nack credit for flit 877912
Requeued flit 877912
1
Received nack credit for flit 880937
Requeued flit 880937
5
Received nack credit for flit 881124
Requeued flit 881124
1
Received nack credit for flit 886587
Requeued flit 886587
8
Received nack credit for flit 887440
Requeued flit 887440
4
Received nack credit for flit 889134
Requeued flit 889134
1
Received nack credit for flit 897095
Requeued flit 897095
1
Received nack credit for flit 899647
Requeued flit 899647
2
Received nack credit for flit 899746
Requeued flit 899746
1
Received nack credit for flit 900650
Requeued flit 900650
1
Received nack credit for flit 902324
Requeued flit 902324
2
Received nack credit for flit 903553
Requeued flit 903553
1
Received nack credit for flit 904864
Requeued flit 904864
5
Received nack credit for flit 904914
Requeued flit 904914
7
Received nack credit for flit 905561
Requeued flit 905561
3
Received nack credit for flit 906369
Requeued flit 906369
8
Received nack credit for flit 910051
Requeued flit 910051
4
Received nack credit for flit 912216
Requeued flit 912216
1
Received nack credit for flit 913354
Requeued flit 913354
3
Received nack credit for flit 916379
Requeued flit 916379
2
Received nack credit for flit 918177
Requeued flit 918177
1
1
Received nack credit for flit 920370
Requeued flit 920370
Received nack credit for flit 920434
Requeued flit 920434
2
2
Received nack credit for flit 921750
Requeued flit 921750
Received nack credit for flit 921818
Requeued flit 921818
3
Received nack credit for flit 922676
Requeued flit 922676
2
Received nack credit for flit 923626
Requeued flit 923626
2
Received nack credit for flit 925329
Requeued flit 925329
11
Received nack credit for flit 925860
Requeued flit 925860
3
2
Received nack credit for flit 927422
Requeued flit 927422
Received nack credit for flit 927864
Requeued flit 927864
9
Received nack credit for flit 927734
Requeued flit 927734
1
Received nack credit for flit 929687
Requeued flit 929687
1
Received nack credit for flit 930137
Requeued flit 930137
1
Received nack credit for flit 932638
Requeued flit 932638
2
Received nack credit for flit 937323
Requeued flit 937323
3
Received nack credit for flit 938868
Requeued flit 938868
10
Received nack credit for flit 938924
Requeued flit 938924
1
Received nack credit for flit 940492
Requeued flit 940492
1
Received nack credit for flit 945963
Requeued flit 945963
7
Received nack credit for flit 946807
Requeued flit 946807
4
Received nack credit for flit 952303
Requeued flit 952303
5
Received nack credit for flit 952465
Requeued flit 952465
1
Received nack credit for flit 953085
Requeued flit 953085
5
Received nack credit for flit 953447
Requeued flit 953447
3
Received nack credit for flit 953973
Requeued flit 953973
5
Received nack credit for flit 957647
Requeued flit 957647
3
3
Received nack credit for flit 959363
Requeued flit 959363
Received nack credit for flit 959521
Requeued flit 959521
1
Received nack credit for flit 962086
Requeued flit 962086
12
Received nack credit for flit 961684
Requeued flit 961684
4
Received nack credit for flit 965076
Requeued flit 965076
1
Received nack credit for flit 965888
Requeued flit 965888
3
Received nack credit for flit 967472
Requeued flit 967472
9
Received nack credit for flit 968676
Requeued flit 968676
1
Received nack credit for flit 970487
Requeued flit 970487
1
Received nack credit for flit 973732
Requeued flit 973732
1
3
Received nack credit for flit 976867
Requeued flit 976867
Received nack credit for flit 976813
Requeued flit 976813
8
Received nack credit for flit 978387
Requeued flit 978387
3
Received nack credit for flit 980992
Requeued flit 980992
4
Received nack credit for flit 981348
Requeued flit 981348
5
Received nack credit for flit 983600
Requeued flit 983600
1
Received nack credit for flit 984460
Requeued flit 984460
5
Received nack credit for flit 984481
Requeued flit 984481
6
Received nack credit for flit 986674
Requeued flit 986674
2
Received nack credit for flit 990172
Requeued flit 990172
1
Received nack credit for flit 990731
Requeued flit 990731
1
Received nack credit for flit 991021
Requeued flit 991021
6
Received nack credit for flit 990997
Requeued flit 990997
2
Received nack credit for flit 993265
Requeued flit 993265
9
9
Received nack credit for flit 993752
Requeued flit 993752
Received nack credit for flit 994128
Requeued flit 994128
7
Received nack credit for flit 996802
Requeued flit 996802
5
Received nack credit for flit 997139
Requeued flit 997139
1
Received nack credit for flit 997764
Requeued flit 997764
1
Received nack credit for flit 999814
Requeued flit 999814
2
Received nack credit for flit 1000461
Requeued flit 1000461
1
Received nack credit for flit 1002383
Requeued flit 1002383
10
Received nack credit for flit 1004654
Requeued flit 1004654
1
Received nack credit for flit 1008679
Requeued flit 1008679
7
Received nack credit for flit 1010616
Requeued flit 1010616
8
Received nack credit for flit 1012075
Requeued flit 1012075
2
Received nack credit for flit 1013498
Requeued flit 1013498
4
Received nack credit for flit 1013979
Requeued flit 1013979
1
Received nack credit for flit 1014505
Requeued flit 1014505
1
Received nack credit for flit 1018160
Requeued flit 1018160
5
5
Received nack credit for flit 1018206
Requeued flit 1018206
Received nack credit for flit 1018243
Requeued flit 1018243
4
Received nack credit for flit 1020068
Requeued flit 1020068
1
Received nack credit for flit 1022536
Requeued flit 1022536
Class 0:
Packet latency average = 24.0261
	minimum = 5
	maximum = 77
Network latency average = 24.0261
	minimum = 5
	maximum = 77
Slowest packet = 983728
Flit latency average = 24.0364
	minimum = 5
	maximum = 77
Slowest flit = 983728
Fragmentation average = 0
	minimum = 0
	maximum = 0
Injected packet rate average = 0.400664
	minimum = 0.3865 (at node 56)
	maximum = 0.4108 (at node 19)
Accepted packet rate average = 0.400691
	minimum = 0.3809 (at node 6)
	maximum = 0.4152 (at node 63)
Injected flit rate average = 0.400664
	minimum = 0.3865 (at node 56)
	maximum = 0.4108 (at node 19)
Accepted flit rate average= 0.400691
	minimum = 0.3809 (at node 6)
	maximum = 0.4152 (at node 63)
Injected packet length average = 1
Accepted packet length average = 1
Total in-flight flits = 602 (602 measured)
latency change    = 0.0012109
throughput change = 0.00203945
2
3
Received nack credit for flit 1024463
Requeued flit 1024463
Received nack credit for flit 1024428
Requeued flit 1024428
3
Received nack credit for flit 1026794
Requeued flit 1026794
1
Received nack credit for flit 1027585
Requeued flit 1027585
5
Received nack credit for flit 1028751
Requeued flit 1028751
2
Received nack credit for flit 1033965
Requeued flit 1033965
3
5
Received nack credit for flit 1037736
Requeued flit 1037736
Received nack credit for flit 1037953
Requeued flit 1037953
2
Received nack credit for flit 1040856
Requeued flit 1040856
8
Received nack credit for flit 1042831
Requeued flit 1042831
2
Received nack credit for flit 1045559
Requeued flit 1045559
1
Received nack credit for flit 1046520
Requeued flit 1046520
1
Received nack credit for flit 1050455
Requeued flit 1050455
3
Received nack credit for flit 1054849
Requeued flit 1054849
1
Received nack credit for flit 1055550
Requeued flit 1055550
3
1
Received nack credit for flit 1056831
Requeued flit 1056831
Received nack credit for flit 1057192
Requeued flit 1057192
4
Received nack credit for flit 1059021
Requeued flit 1059021
6
Received nack credit for flit 1060157
Requeued flit 1060157
2
Received nack credit for flit 1061203
Requeued flit 1061203
1
3
Received nack credit for flit 1062647
Requeued flit 1062647
Received nack credit for flit 1062589
Requeued flit 1062589
1
Received nack credit for flit 1063953
Requeued flit 1063953
6
Received nack credit for flit 1063882
Requeued flit 1063882
2
Received nack credit for flit 1067612
Requeued flit 1067612
10
1
Received nack credit for flit 1069008
Requeued flit 1069008
Received nack credit for flit 1068225
Requeued flit 1068225
8
Received nack credit for flit 1072436
Requeued flit 1072436
2
Received nack credit for flit 1073913
Requeued flit 1073913
1
Received nack credit for flit 1074479
Requeued flit 1074479
5
Received nack credit for flit 1074744
Requeued flit 1074744
3
Received nack credit for flit 1077830
Requeued flit 1077830
3
4
Received nack credit for flit 1083660
Requeued flit 1083660
Received nack credit for flit 1083507
Requeued flit 1083507
6
Received nack credit for flit 1086231
Requeued flit 1086231
4
Received nack credit for flit 1086776
Requeued flit 1086776
8
1
Received nack credit for flit 1087805
Requeued flit 1087805
Received nack credit for flit 1088439
Requeued flit 1088439
1
Received nack credit for flit 1089339
Requeued flit 1089339
6
Received nack credit for flit 1089491
Requeued flit 1089491
6
Received nack credit for flit 1092845
Requeued flit 1092845
2
Received nack credit for flit 1095721
Requeued flit 1095721
9
Received nack credit for flit 1098785
Requeued flit 1098785
1
Received nack credit for flit 1100642
Requeued flit 1100642
8
Received nack credit for flit 1103520
Requeued flit 1103520
5
1
Received nack credit for flit 1104604
Requeued flit 1104604
Received nack credit for flit 1105019
Requeued flit 1105019
1
Received nack credit for flit 1105443
Requeued flit 1105443
1
Received nack credit for flit 1115467
Requeued flit 1115467
1
Received nack credit for flit 1120197
Requeued flit 1120197
1
Received nack credit for flit 1120367
Requeued flit 1120367
2
Received nack credit for flit 1125569
Requeued flit 1125569
3
Received nack credit for flit 1130308
Requeued flit 1130308
7
Received nack credit for flit 1130158
Requeued flit 1130158
1
Received nack credit for flit 1134016
Requeued flit 1134016
6
8
Received nack credit for flit 1136628
Requeued flit 1136628
Received nack credit for flit 1136867
Requeued flit 1136867
2
Received nack credit for flit 1138651
Requeued flit 1138651
3
Received nack credit for flit 1139559
Requeued flit 1139559
1
Received nack credit for flit 1141313
Requeued flit 1141313
2
Received nack credit for flit 1141462
Requeued flit 1141462
2
Received nack credit for flit 1145346
Requeued flit 1145346
1
Received nack credit for flit 1147720
Requeued flit 1147720
2
Received nack credit for flit 1148666
Requeued flit 1148666
1
Received nack credit for flit 1149001
Requeued flit 1149001
1
Received nack credit for flit 1149467
Requeued flit 1149467
2
Received nack credit for flit 1150698
Requeued flit 1150698
3
Received nack credit for flit 1153572
Requeued flit 1153572
1
Received nack credit for flit 1154907
Requeued flit 1154907
1
Received nack credit for flit 1155947
Requeued flit 1155947
2
Received nack credit for flit 1156383
Requeued flit 1156383
2
Received nack credit for flit 1161270
Requeued flit 1161270
7
Received nack credit for flit 1163349
Requeued flit 1163349
4
Received nack credit for flit 1165229
Requeued flit 1165229
3
Received nack credit for flit 1165809
Requeued flit 1165809
2
Received nack credit for flit 1166891
Requeued flit 1166891
3
Received nack credit for flit 1168702
Requeued flit 1168702
1
Received nack credit for flit 1169488
Requeued flit 1169488
1
Received nack credit for flit 1171691
Requeued flit 1171691
1
Received nack credit for flit 1172791
Requeued flit 1172791
8
Received nack credit for flit 1173796
Requeued flit 1173796
3
Received nack credit for flit 1175580
Requeued flit 1175580
6
Received nack credit for flit 1178701
Requeued flit 1178701
6
Received nack credit for flit 1182329
Requeued flit 1182329
1
Received nack credit for flit 1183507
Requeued flit 1183507
8
2
Received nack credit for flit 1184568
Requeued flit 1184568
Received nack credit for flit 1185294
Requeued flit 1185294
5
Received nack credit for flit 1185105
Requeued flit 1185105
1
Received nack credit for flit 1187183
Requeued flit 1187183
3
Received nack credit for flit 1189728
Requeued flit 1189728
1
Received nack credit for flit 1192159
Requeued flit 1192159
4
Received nack credit for flit 1194616
Requeued flit 1194616
2
3
Received nack credit for flit 1195229
Requeued flit 1195229
Received nack credit for flit 1195166
Requeued flit 1195166
2
Received nack credit for flit 1196289
Requeued flit 1196289
4
Received nack credit for flit 1197712
Requeued flit 1197712
1
Received nack credit for flit 1200592
Requeued flit 1200592
1
7
Received nack credit for flit 1200332
Requeued flit 1200332
Received nack credit for flit 1200822
Requeued flit 1200822
5
Received nack credit for flit 1201529
Requeued flit 1201529
5
Received nack credit for flit 1201810
Requeued flit 1201810
1
Received nack credit for flit 1204574
Requeued flit 1204574
3
Received nack credit for flit 1205190
Requeued flit 1205190
1
Received nack credit for flit 1205846
Requeued flit 1205846
1
Received nack credit for flit 1206307
Requeued flit 1206307
2
Received nack credit for flit 1209972
Requeued flit 1209972
1
Received nack credit for flit 1210355
Requeued flit 1210355
5
Received nack credit for flit 1214748
Requeued flit 1214748
1
Received nack credit for flit 1216870
Requeued flit 1216870
11
Received nack credit for flit 1216968
Requeued flit 1216968
2
Received nack credit for flit 1218304
Requeued flit 1218304
2
Received nack credit for flit 1219353
Requeued flit 1219353
1
Received nack credit for flit 1220682
Requeued flit 1220682
5
Received nack credit for flit 1224159
Requeued flit 1224159
8
Received nack credit for flit 1224743
Requeued flit 1224743
1
Received nack credit for flit 1226291
Requeued flit 1226291
2
Received nack credit for flit 1229541
Requeued flit 1229541
4
1
Received nack credit for flit 1231386
Requeued flit 1231386
Received nack credit for flit 1231666
Requeued flit 1231666
1
Received nack credit for flit 1232413
Requeued flit 1232413
1
Received nack credit for flit 1232681
Requeued flit 1232681
8
Received nack credit for flit 1234089
Requeued flit 1234089
1
Received nack credit for flit 1235667
Requeued flit 1235667
1
Received nack credit for flit 1236109
Requeued flit 1236109
6
Received nack credit for flit 1237244
Requeued flit 1237244
4
Received nack credit for flit 1239420
Requeued flit 1239420
2
Received nack credit for flit 1240007
Requeued flit 1240007
3
Received nack credit for flit 1240230
Requeued flit 1240230
1
Received nack credit for flit 1243160
Requeued flit 1243160
4
Received nack credit for flit 1248324
Requeued flit 1248324
1
Received nack credit for flit 1248835
Requeued flit 1248835
4
Received nack credit for flit 1250878
Requeued flit 1250878
1
Received nack credit for flit 1252357
Requeued flit 1252357
1
Received nack credit for flit 1252852
Requeued flit 1252852
1
1
Received nack credit for flit 1258111
Requeued flit 1258111
Received nack credit for flit 1258234
Requeued flit 1258234
4
Received nack credit for flit 1259579
Requeued flit 1259579
6
Received nack credit for flit 1259984
Requeued flit 1259984
1
Received nack credit for flit 1267500
Requeued flit 1267500
2
Received nack credit for flit 1268026
Requeued flit 1268026
1
Received nack credit for flit 1272183
Requeued flit 1272183
1
Received nack credit for flit 1274299
Requeued flit 1274299
Class 0:
Packet latency average = 24.0581
	minimum = 5
	maximum = 80
Network latency average = 24.0581
	minimum = 5
	maximum = 80
Slowest packet = 1246217
Flit latency average = 24.0633
	minimum = 5
	maximum = 80
Slowest flit = 1246217
Fragmentation average = 0
	minimum = 0
	maximum = 0
Injected packet rate average = 0.400566
	minimum = 0.3937 (at node 17)
	maximum = 0.4079 (at node 50)
Accepted packet rate average = 0.400542
	minimum = 0.39235 (at node 18)
	maximum = 0.40925 (at node 31)
Injected flit rate average = 0.400566
	minimum = 0.3937 (at node 17)
	maximum = 0.4079 (at node 50)
Accepted flit rate average= 0.400542
	minimum = 0.39235 (at node 18)
	maximum = 0.40925 (at node 31)
Injected packet length average = 1
Accepted packet length average = 1
Total in-flight flits = 650 (650 measured)
latency change    = 0.00133144
throughput change = 0.000370591
8
Received nack credit for flit 1282306
Requeued flit 1282306
5
6
Received nack credit for flit 1283044
Requeued flit 1283044
Received nack credit for flit 1282758
Requeued flit 1282758
1
1
4
Received nack credit for flit 1284006
Requeued flit 1284006
Received nack credit for flit 1284019
Requeued flit 1284019
Received nack credit for flit 1283856
Requeued flit 1283856
5
Received nack credit for flit 1284218
Requeued flit 1284218
3
Received nack credit for flit 1284764
Requeued flit 1284764
8
Received nack credit for flit 1285364
Requeued flit 1285364
1
Received nack credit for flit 1286759
Requeued flit 1286759
4
Received nack credit for flit 1287482
Requeued flit 1287482
1
Received nack credit for flit 1288710
Requeued flit 1288710
7
Received nack credit for flit 1290424
Requeued flit 1290424
1
Received nack credit for flit 1291198
Requeued flit 1291198
4
2
Received nack credit for flit 1292233
Requeued flit 1292233
Received nack credit for flit 1292481
Requeued flit 1292481
3
1
Received nack credit for flit 1292743
Requeued flit 1292743
Received nack credit for flit 1293050
Requeued flit 1293050
5
Received nack credit for flit 1298342
Requeued flit 1298342
5
1
Received nack credit for flit 1299424
Requeued flit 1299424
Received nack credit for flit 1299820
Requeued flit 1299820
4
Received nack credit for flit 1302349
Requeued flit 1302349
8
Received nack credit for flit 1302975
Requeued flit 1302975
1
Received nack credit for flit 1307286
Requeued flit 1307286
1
Received nack credit for flit 1316693
Requeued flit 1316693
8
Received nack credit for flit 1317101
Requeued flit 1317101
4
Received nack credit for flit 1320902
Requeued flit 1320902
1
Received nack credit for flit 1326128
Requeued flit 1326128
1
Received nack credit for flit 1335659
Requeued flit 1335659
5
Received nack credit for flit 1336868
Requeued flit 1336868
1
Received nack credit for flit 1339219
Requeued flit 1339219
4
Received nack credit for flit 1340446
Requeued flit 1340446
1
Received nack credit for flit 1349305
Requeued flit 1349305
8
Received nack credit for flit 1351704
Requeued flit 1351704
1
Received nack credit for flit 1355750
Requeued flit 1355750
1
Received nack credit for flit 1358502
Requeued flit 1358502
3
Received nack credit for flit 1358617
Requeued flit 1358617
10
Received nack credit for flit 1358254
Requeued flit 1358254
1
Received nack credit for flit 1361301
Requeued flit 1361301
5
Received nack credit for flit 1361145
Requeued flit 1361145
2
Received nack credit for flit 1362065
Requeued flit 1362065
1
Received nack credit for flit 1363670
Requeued flit 1363670
5
Received nack credit for flit 1363975
Requeued flit 1363975
1
Received nack credit for flit 1366557
Requeued flit 1366557
6
Received nack credit for flit 1368027
Requeued flit 1368027
2
Received nack credit for flit 1372751
Requeued flit 1372751
6
Received nack credit for flit 1375007
Requeued flit 1375007
4
Received nack credit for flit 1377256
Requeued flit 1377256
2
Received nack credit for flit 1379580
Requeued flit 1379580
1
Received nack credit for flit 1380991
Requeued flit 1380991
3
Received nack credit for flit 1384094
Requeued flit 1384094
3
Received nack credit for flit 1385088
Requeued flit 1385088
5
Received nack credit for flit 1388162
Requeued flit 1388162
5
Received nack credit for flit 1389412
Requeued flit 1389412
5
Received nack credit for flit 1390804
Requeued flit 1390804
7
Received nack credit for flit 1391243
Requeued flit 1391243
2
Received nack credit for flit 1393754
Requeued flit 1393754
6
Received nack credit for flit 1393860
Requeued flit 1393860
1
Received nack credit for flit 1395132
Requeued flit 1395132
1
Received nack credit for flit 1397019
Requeued flit 1397019
1
Received nack credit for flit 1397746
Requeued flit 1397746
4
Received nack credit for flit 1398847
Requeued flit 1398847
2
Received nack credit for flit 1403220
Requeued flit 1403220
2
Received nack credit for flit 1406131
Requeued flit 1406131
1
Received nack credit for flit 1407312
Requeued flit 1407312
4
Received nack credit for flit 1409565
Requeued flit 1409565
2
Received nack credit for flit 1412161
Requeued flit 1412161
1
Received nack credit for flit 1412699
Requeued flit 1412699
7
Received nack credit for flit 1412599
Requeued flit 1412599
6
Received nack credit for flit 1412633
Requeued flit 1412633
2
Received nack credit for flit 1417644
Requeued flit 1417644
4
Received nack credit for flit 1419467
Requeued flit 1419467
3
2
Received nack credit for flit 1422021
Requeued flit 1422021
Received nack credit for flit 1422266
Requeued flit 1422266
6
Received nack credit for flit 1423323
Requeued flit 1423323
4
2
Received nack credit for flit 1425740
Requeued flit 1425740
Received nack credit for flit 1425797
Requeued flit 1425797
4
Received nack credit for flit 1427164
Requeued flit 1427164
7
Received nack credit for flit 1429027
Requeued flit 1429027
3
Received nack credit for flit 1431132
Requeued flit 1431132
1
Received nack credit for flit 1432932
Requeued flit 1432932
1
Received nack credit for flit 1434360
Requeued flit 1434360
1
Received nack credit for flit 1438405
Requeued flit 1438405
1
Received nack credit for flit 1440578
Requeued flit 1440578
2
Received nack credit for flit 1440763
Requeued flit 1440763
1
5
Received nack credit for flit 1441678
Requeued flit 1441678
Received nack credit for flit 1441382
Requeued flit 1441382
3
Received nack credit for flit 1443132
Requeued flit 1443132
3
Received nack credit for flit 1443648
Requeued flit 1443648
6
Received nack credit for flit 1445367
Requeued flit 1445367
1
Received nack credit for flit 1449662
Requeued flit 1449662
6
Received nack credit for flit 1449385
Requeued flit 1449385
7
Received nack credit for flit 1450888
Requeued flit 1450888
3
Received nack credit for flit 1453180
Requeued flit 1453180
2
Received nack credit for flit 1459604
Requeued flit 1459604
1
Received nack credit for flit 1461666
Requeued flit 1461666
2
Received nack credit for flit 1463421
Requeued flit 1463421
3
Received nack credit for flit 1464380
Requeued flit 1464380
4
Received nack credit for flit 1466517
Requeued flit 1466517
1
Received nack credit for flit 1467968
Requeued flit 1467968
5
Received nack credit for flit 1470911
Requeued flit 1470911
6
Received nack credit for flit 1471802
Requeued flit 1471802
8
Received nack credit for flit 1472052
Requeued flit 1472052
1
Received nack credit for flit 1475036
Requeued flit 1475036
4
Received nack credit for flit 1476009
Requeued flit 1476009
1
3
Received nack credit for flit 1479344
Requeued flit 1479344
Received nack credit for flit 1479228
Requeued flit 1479228
1
Received nack credit for flit 1480482
Requeued flit 1480482
7
Received nack credit for flit 1480013
Requeued flit 1480013
1
Received nack credit for flit 1482556
Requeued flit 1482556
3
Received nack credit for flit 1483022
Requeued flit 1483022
1
Received nack credit for flit 1483630
Requeued flit 1483630
1
Received nack credit for flit 1484392
Requeued flit 1484392
6
Received nack credit for flit 1484532
Requeued flit 1484532
7
Received nack credit for flit 1486970
Requeued flit 1486970
1
Received nack credit for flit 1490279
Requeued flit 1490279
1
Received nack credit for flit 1491002
Requeued flit 1491002
1
Received nack credit for flit 1494677
Requeued flit 1494677
4
Received nack credit for flit 1497109
Requeued flit 1497109
3
5
Received nack credit for flit 1498473
Requeued flit 1498473
Received nack credit for flit 1498434
Requeued flit 1498434
1
Received nack credit for flit 1500292
Requeued flit 1500292
8
Received nack credit for flit 1502047
Requeued flit 1502047
6
10
Received nack credit for flit 1503979
Requeued flit 1503979
Received nack credit for flit 1503582
Requeued flit 1503582
5
Received nack credit for flit 1504694
Requeued flit 1504694
4
8
Received nack credit for flit 1507727
Requeued flit 1507727
Received nack credit for flit 1507593
Requeued flit 1507593
2
Received nack credit for flit 1509430
Requeued flit 1509430
4
5
Received nack credit for flit 1509779
Requeued flit 1509779
Received nack credit for flit 1509816
Requeued flit 1509816
4
Received nack credit for flit 1511603
Requeued flit 1511603
3
Received nack credit for flit 1512714
Requeued flit 1512714
5
Received nack credit for flit 1514024
Requeued flit 1514024
7
Received nack credit for flit 1514500
Requeued flit 1514500
3
Received nack credit for flit 1515507
Requeued flit 1515507
1
Received nack credit for flit 1518031
Requeued flit 1518031
3
Received nack credit for flit 1520077
Requeued flit 1520077
1
Received nack credit for flit 1520647
Requeued flit 1520647
4
Received nack credit for flit 1523199
Requeued flit 1523199
2
Received nack credit for flit 1525431
Requeued flit 1525431
3
Received nack credit for flit 1527074
Requeued flit 1527074
5
Received nack credit for flit 1527348
Requeued flit 1527348
9
Received nack credit for flit 1528447
Requeued flit 1528447
1
Received nack credit for flit 1529419
Requeued flit 1529419
1
Received nack credit for flit 1530231
Requeued flit 1530231
1
Received nack credit for flit 1530645
Requeued flit 1530645
7
Received nack credit for flit 1530283
Requeued flit 1530283
2
Received nack credit for flit 1534864
Requeued flit 1534864
Class 0:
Packet latency average = 24.0463
	minimum = 5
	maximum = 80
Network latency average = 24.0463
	minimum = 5
	maximum = 80
Slowest packet = 1246217
Flit latency average = 24.0498
	minimum = 5
	maximum = 80
Slowest flit = 1246217
Fragmentation average = 0
	minimum = 0
	maximum = 0
Injected packet rate average = 0.400084
	minimum = 0.3939 (at node 41)
	maximum = 0.405967 (at node 52)
Accepted packet rate average = 0.400078
	minimum = 0.392667 (at node 18)
	maximum = 0.407 (at node 31)
Injected flit rate average = 0.400084
	minimum = 0.3939 (at node 41)
	maximum = 0.405967 (at node 52)
Accepted flit rate average= 0.400078
	minimum = 0.392667 (at node 18)
	maximum = 0.407 (at node 31)
Injected packet length average = 1
Accepted packet length average = 1
Total in-flight flits = 632 (632 measured)
latency change    = 0.00049003
throughput change = 0.00116123
Draining all recorded packets ...
1
Received nack credit for flit 1536319
Requeued flit 1536319
Draining remaining packets ...
9
Received nack credit for flit 1536629
Requeued flit 1536629
Time taken is 60100 cycles
====== Overall Traffic Statistics ======
====== Traffic class 0 ======
Packet latency average = 24.0499 (1 samples)
	minimum = 5 (1 samples)
	maximum = 80 (1 samples)
Network latency average = 24.0499 (1 samples)
	minimum = 5 (1 samples)
	maximum = 80 (1 samples)
Flit latency average = 24.0525 (1 samples)
	minimum = 5 (1 samples)
	maximum = 80 (1 samples)
Fragmentation average = 0 (1 samples)
	minimum = 0 (1 samples)
	maximum = 0 (1 samples)
Injected packet rate average = 0.400084 (1 samples)
	minimum = 0.3939 (1 samples)
	maximum = 0.405967 (1 samples)
Accepted packet rate average = 0.400078 (1 samples)
	minimum = 0.392667 (1 samples)
	maximum = 0.407 (1 samples)
Injected flit rate average = 0.400084 (1 samples)
	minimum = 0.3939 (1 samples)
	maximum = 0.405967 (1 samples)
Accepted flit rate average = 0.400078 (1 samples)
	minimum = 0.392667 (1 samples)
	maximum = 0.407 (1 samples)
Injected packet size average = 1 (1 samples)
Accepted packet size average = 1 (1 samples)
Hops average = 6.24852 (1 samples)
Total run time 121.199
