BEGIN Configuration File: examples/ecc_mesh88_config_1_0.650_link_3
// $Id$

// Copyright (c) 2007-2015, Trustees of The Leland Stanford Junior University
// All rights reserved.
//
// Redistribution and use in source and binary forms, with or without
// modification, are permitted provided that the following conditions are met:
//
// Redistributions of source code must retain the above copyright notice, this
// list of conditions and the following disclaimer.
// Redistributions in binary form must reproduce the above copyright notice,
// this list of conditions and the following disclaimer in the documentation
// and/or other materials provided with the distribution.
//
// THIS SOFTWARE IS PROVIDED BY THE COPYRIGHT HOLDERS AND CONTRIBUTORS "AS IS"
// AND ANY EXPRESS OR IMPLIED WARRANTIES, INCLUDING, BUT NOT LIMITED TO, THE
// IMPLIED WARRANTIES OF MERCHANTABILITY AND FITNESS FOR A PARTICULAR PURPOSE
// ARE DISCLAIMED. IN NO EVENT SHALL THE COPYRIGHT OWNER OR CONTRIBUTORS BE
// LIABLE FOR ANY DIRECT, INDIRECT, INCIDENTAL, SPECIAL, EXEMPLARY, OR
// CONSEQUENTIAL DAMAGES (INCLUDING, BUT NOT LIMITED TO, PROCUREMENT OF
// SUBSTITUTE GOODS OR SERVICES; LOSS OF USE, DATA, OR PROFITS; OR BUSINESS
// INTERRUPTION) HOWEVER CAUSED AND ON ANY THEORY OF LIABILITY, WHETHER IN
// CONTRACT, STRICT LIABILITY, OR TORT (INCLUDING NEGLIGENCE OR OTHERWISE)
// ARISING IN ANY WAY OUT OF THE USE OF THIS SOFTWARE, EVEN IF ADVISED OF THE
// POSSIBILITY OF SUCH DAMAGE.

// Dragonfly
//




vc_buf_size = 256;


wait_for_tail_credit = 0;

//
// Router architecture
//
vc_allocator = separable_input_first; 
sw_allocator = separable_input_first;
alloc_iters  = 1;

credit_delay   = 2;
routing_delay  = 0;
vc_alloc_delay = 1;
sw_alloc_delay = 1;
st_final_delay = 1;

input_speedup     = 1;
output_speedup    = 1;
internal_speedup  = 2.0;


warmup_periods = 3;
sim_count          = 1;

sample_period  = 10000;  


routing_function = dor;
num_vcs     = 2;

priority = none;
traffic       = uniform; 

injection_rate = 0.65;
packet_size = 1;
injection_rate_uses_flits = 1;

topology = mesh;

k  = 8;
n  = 2;

fer = 3;
ecc = link;

watch_out=-;
//watch_file = watch.txt;

ecc = link;

stats_out = examples/ecc_mesh88_config_1_0.650_link_3.m;

END Configuration File: examples/ecc_mesh88_config_1_0.650_link_3
1
Received nack credit for flit 167
Requeued flit 167
2
Received nack credit for flit 508
Requeued flit 508
1
4
3
Received nack credit for flit 732
Requeued flit 732
4
Received nack credit for flit 725
Requeued flit 725
Received nack credit for flit 571
Requeued flit 571
4
3
Received nack credit for flit 872
Requeued flit 872
Received nack credit for flit 799
Requeued flit 799
Received nack credit for flit 1218
Requeued flit 1218
1
Received nack credit for flit 1816
Requeued flit 1816
2
7
1
Received nack credit for flit 1989
Requeued flit 1989
Received nack credit for flit 2141
Requeued flit 2141
Received nack credit for flit 978
Requeued flit 978
6
Received nack credit for flit 1719
Requeued flit 1719
6
1
Received nack credit for flit 1868
Requeued flit 1868
1
Received nack credit for flit 3103
Requeued flit 3103
Received nack credit for flit 3596
Requeued flit 3596
2
4
1
Received nack credit for flit 3796
Requeued flit 3796
Received nack credit for flit 3976
Requeued flit 3976
Received nack credit for flit 3105
Requeued flit 3105
5
Received nack credit for flit 2832
Requeued flit 2832
7
11
8
Received nack credit for flit 3279
Requeued flit 3279
Received nack credit for flit 1814
Requeued flit 1814
3
Received nack credit for flit 2920
Requeued flit 2920
6
Received nack credit for flit 4658
Requeued flit 4658
6
8
3
Received nack credit for flit 3546
Requeued flit 3546
Received nack credit for flit 3665
Requeued flit 3665
Received nack credit for flit 3989
Requeued flit 3989
Received nack credit for flit 3901
Requeued flit 3901
3
4
Received nack credit for flit 4610
Requeued flit 4610
Received nack credit for flit 5262
Requeued flit 5262
11
4
3
8
Received nack credit for flit 2623
Requeued flit 2623
Received nack credit for flit 6031
Requeued flit 6031
Received nack credit for flit 5984
Requeued flit 5984
Received nack credit for flit 3901
Requeued flit 3901
3
Received nack credit for flit 5025
Requeued flit 5025
9
2
Received nack credit for flit 3801
Requeued flit 3801
Received nack credit for flit 8355
Requeued flit 8355
7
Received nack credit for flit 6766
Requeued flit 6766
1
1
5
Received nack credit for flit 9176
Requeued flit 9176
Received nack credit for flit 8549
Requeued flit 8549
Received nack credit for flit 6336
Requeued flit 6336
4
3
2
Received nack credit for flit 6654
Requeued flit 6654
Received nack credit for flit 9677
Requeued flit 9677
Received nack credit for flit 9744
Requeued flit 9744
1
Received nack credit for flit 10031
Requeued flit 10031
8
3
7
Received nack credit for flit 7516
Requeued flit 7516
Received nack credit for flit 6699
Requeued flit 6699
Received nack credit for flit 5375
Requeued flit 5375
1
1
2
Received nack credit for flit 11060
Requeued flit 11060
Received nack credit for flit 9608
Requeued flit 9608
4
Received nack credit for flit 11038
Requeued flit 11038
1
9
Received nack credit for flit 10166
Requeued flit 10166
Received nack credit for flit 9852
Requeued flit 9852
Received nack credit for flit 6279
Requeued flit 6279
1
Received nack credit for flit 11928
Requeued flit 11928
4
2
Received nack credit for flit 8427
Requeued flit 8427
Received nack credit for flit 12192
Requeued flit 12192
7
3
1
Received nack credit for flit 7690
Requeued flit 7690
Received nack credit for flit 11182
Requeued flit 11182
Received nack credit for flit 12818
Requeued flit 12818
11
7
Received nack credit for flit 7214
Requeued flit 7214
1
Received nack credit for flit 9023
Requeued flit 9023
1
Received nack credit for flit 14064
Requeued flit 14064
Received nack credit for flit 14352
Requeued flit 14352
5
Received nack credit for flit 11099
Requeued flit 11099
1
1
Received nack credit for flit 14241
Requeued flit 14241
3
2
Received nack credit for flit 14538
Requeued flit 14538
Received nack credit for flit 12739
Requeued flit 12739
Received nack credit for flit 12373
Requeued flit 12373
6
Received nack credit for flit 10392
Requeued flit 10392
2
4
1
6
1
Received nack credit for flit 14800
Requeued flit 14800
1
Received nack credit for flit 15230
Requeued flit 15230
Received nack credit for flit 11445
Requeued flit 11445
Received nack credit for flit 15805
Requeued flit 15805
Received nack credit for flit 15980
Requeued flit 15980
4
Received nack credit for flit 16040
Requeued flit 16040
1
Received nack credit for flit 11309
Requeued flit 11309
1
Received nack credit for flit 13397
Requeued flit 13397
Received nack credit for flit 16225
Requeued flit 16225
5
3
Received nack credit for flit 11148
Requeued flit 11148
1
Received nack credit for flit 15933
Requeued flit 15933
6
Received nack credit for flit 15112
Requeued flit 15112
Received nack credit for flit 12530
Requeued flit 12530
2
1
Received nack credit for flit 16692
Requeued flit 16692
1
5
Received nack credit for flit 15608
Requeued flit 15608
Received nack credit for flit 12467
Requeued flit 12467
1
2
1
3
Received nack credit for flit 17789
Requeued flit 17789
Received nack credit for flit 17901
Requeued flit 17901
2
Received nack credit for flit 17925
Requeued flit 17925
Received nack credit for flit 14076
Requeued flit 14076
Received nack credit for flit 18149
Requeued flit 18149
Received nack credit for flit 17930
Requeued flit 17930
2
9
Received nack credit for flit 18085
Requeued flit 18085
Received nack credit for flit 11097
Requeued flit 11097
5
7
Received nack credit for flit 13454
Requeued flit 13454
5
3
Received nack credit for flit 13620
Requeued flit 13620
Received nack credit for flit 13027
Requeued flit 13027
Received nack credit for flit 14892
Requeued flit 14892
3
1
5
Received nack credit for flit 15477
Requeued flit 15477
2
1
Received nack credit for flit 18740
Requeued flit 18740
Received nack credit for flit 13380
Requeued flit 13380
Received nack credit for flit 18526
Requeued flit 18526
Received nack credit for flit 17214
Requeued flit 17214
2
4
Received nack credit for flit 19184
Requeued flit 19184
Received nack credit for flit 14665
Requeued flit 14665
1
2
1
Received nack credit for flit 20029
Requeued flit 20029
6
Received nack credit for flit 18713
Requeued flit 18713
Received nack credit for flit 20107
Requeued flit 20107
1
Received nack credit for flit 18249
Requeued flit 18249
Received nack credit for flit 19542
Requeued flit 19542
2
2
5
7
Received nack credit for flit 20578
Requeued flit 20578
Received nack credit for flit 16115
Requeued flit 16115
2
Received nack credit for flit 14935
Requeued flit 14935
Received nack credit for flit 14682
Requeued flit 14682
Received nack credit for flit 16751
Requeued flit 16751
7
Received nack credit for flit 14895
Requeued flit 14895
2
1
3
2
Received nack credit for flit 21123
Requeued flit 21123
1
Received nack credit for flit 22198
Requeued flit 22198
3
Received nack credit for flit 18798
Requeued flit 18798
Received nack credit for flit 21952
Requeued flit 21952
Received nack credit for flit 21704
Requeued flit 21704
Received nack credit for flit 19527
Requeued flit 19527
2
1
Received nack credit for flit 18175
Requeued flit 18175
1
1
Received nack credit for flit 22667
Requeued flit 22667
Received nack credit for flit 21105
Requeued flit 21105
Received nack credit for flit 22869
Requeued flit 22869
1
Received nack credit for flit 19322
Requeued flit 19322
5
Received nack credit for flit 18112
Requeued flit 18112
1
1
Received nack credit for flit 22171
Requeued flit 22171
Received nack credit for flit 24764
Requeued flit 24764
2
3
Received nack credit for flit 25139
Requeued flit 25139
4
5
Received nack credit for flit 24522
Requeued flit 24522
1
Received nack credit for flit 19572
Requeued flit 19572
Received nack credit for flit 18150
Requeued flit 18150
3
1
2
Received nack credit for flit 25873
Requeued flit 25873
Received nack credit for flit 20899
Requeued flit 20899
Received nack credit for flit 22760
Requeued flit 22760
Received nack credit for flit 25578
Requeued flit 25578
1
1
1
Received nack credit for flit 23561
Requeued flit 23561
1
Received nack credit for flit 23956
Requeued flit 23956
Received nack credit for flit 26332
Requeued flit 26332
Received nack credit for flit 23245
Requeued flit 23245
7
Received nack credit for flit 16667
Requeued flit 16667
1
Received nack credit for flit 27418
Requeued flit 27418
3
Received nack credit for flit 22608
Requeued flit 22608
2
5
Received nack credit for flit 20171
Requeued flit 20171
1
Received nack credit for flit 19962
Requeued flit 19962
2
1
1
Received nack credit for flit 28093
Requeued flit 28093
3
Received nack credit for flit 23074
Requeued flit 23074
3
Received nack credit for flit 28005
Requeued flit 28005
Received nack credit for flit 28278
Requeued flit 28278
Received nack credit for flit 22841
Requeued flit 22841
Received nack credit for flit 25280
Requeued flit 25280
2
Received nack credit for flit 23698
Requeued flit 23698
5
1
6
Received nack credit for flit 26198
Requeued flit 26198
Received nack credit for flit 29416
Requeued flit 29416
Received nack credit for flit 21156
Requeued flit 21156
1
6
Received nack credit for flit 30368
Requeued flit 30368
2
8
Received nack credit for flit 21505
Requeued flit 21505
Received nack credit for flit 29543
Requeued flit 29543
4
Received nack credit for flit 25446
Requeued flit 25446
Received nack credit for flit 29410
Requeued flit 29410
3
4
4
5
Received nack credit for flit 27299
Requeued flit 27299
Received nack credit for flit 31141
Requeued flit 31141
Received nack credit for flit 27226
Requeued flit 27226
Received nack credit for flit 20365
Requeued flit 20365
3
7
Received nack credit for flit 23372
Requeued flit 23372
2
Received nack credit for flit 22303
Requeued flit 22303
1
2
1
Received nack credit for flit 27004
Requeued flit 27004
Received nack credit for flit 31904
Requeued flit 31904
Received nack credit for flit 31713
Requeued flit 31713
1
Received nack credit for flit 32241
Requeued flit 32241
Received nack credit for flit 28624
Requeued flit 28624
5
1
Received nack credit for flit 32768
Requeued flit 32768
1
Received nack credit for flit 22769
Requeued flit 22769
Received nack credit for flit 29982
Requeued flit 29982
2
Received nack credit for flit 31001
Requeued flit 31001
1
6
1
Received nack credit for flit 33228
Requeued flit 33228
Received nack credit for flit 23146
Requeued flit 23146
Received nack credit for flit 33819
Requeued flit 33819
1
4
Received nack credit for flit 34199
Requeued flit 34199
Received nack credit for flit 29748
Requeued flit 29748
1
6
1
Received nack credit for flit 34969
Requeued flit 34969
Received nack credit for flit 32329
Requeued flit 32329
2
Received nack credit for flit 23879
Requeued flit 23879
1
2
Received nack credit for flit 30311
Requeued flit 30311
Received nack credit for flit 35340
Requeued flit 35340
Received nack credit for flit 35196
Requeued flit 35196
7
Received nack credit for flit 25028
Requeued flit 25028
1
Received nack credit for flit 36145
Requeued flit 36145
2
Received nack credit for flit 27213
Requeued flit 27213
1
1
Received nack credit for flit 37096
Requeued flit 37096
Received nack credit for flit 37001
Requeued flit 37001
1
Received nack credit for flit 31395
Requeued flit 31395
4
3
Received nack credit for flit 28145
Requeued flit 28145
Received nack credit for flit 37790
Requeued flit 37790
2
4
3
Received nack credit for flit 38224
Requeued flit 38224
Received nack credit for flit 35793
Requeued flit 35793
Received nack credit for flit 33052
Requeued flit 33052
6
Received nack credit for flit 26762
Requeued flit 26762
1
1
Received nack credit for flit 38917
Requeued flit 38917
Received nack credit for flit 39064
Requeued flit 39064
2
Received nack credit for flit 32982
Requeued flit 32982
2
Received nack credit for flit 30233
Requeued flit 30233
1
2
Received nack credit for flit 40646
Requeued flit 40646
Received nack credit for flit 37561
Requeued flit 37561
1
2
1
Received nack credit for flit 41919
Requeued flit 41919
7
1
Received nack credit for flit 41911
Requeued flit 41911
Received nack credit for flit 41676
Requeued flit 41676
Received nack credit for flit 42062
Requeued flit 42062
Received nack credit for flit 28366
Requeued flit 28366
1
Received nack credit for flit 42352
Requeued flit 42352
1
Received nack credit for flit 38892
Requeued flit 38892
1
Received nack credit for flit 43386
Requeued flit 43386
4
Received nack credit for flit 39493
Requeued flit 39493
4
4
Received nack credit for flit 32343
Requeued flit 32343
Received nack credit for flit 34811
Requeued flit 34811
6
5
Received nack credit for flit 37244
Requeued flit 37244
Received nack credit for flit 37603
Requeued flit 37603
1
2
5
5
Received nack credit for flit 45068
Requeued flit 45068
Received nack credit for flit 44781
Requeued flit 44781
Received nack credit for flit 30353
Requeued flit 30353
5
Received nack credit for flit 32259
Requeued flit 32259
8
Received nack credit for flit 43312
Requeued flit 43312
Received nack credit for flit 32258
Requeued flit 32258
3
Received nack credit for flit 38142
Requeued flit 38142
1
Received nack credit for flit 39274
Requeued flit 39274
1
5
1
8
Received nack credit for flit 39246
Requeued flit 39246
Received nack credit for flit 41688
Requeued flit 41688
Received nack credit for flit 46953
Requeued flit 46953
Received nack credit for flit 29799
Requeued flit 29799
1
5
Received nack credit for flit 47767
Requeued flit 47767
2
Received nack credit for flit 43790
Requeued flit 43790
5
2
Received nack credit for flit 46909
Requeued flit 46909
Received nack credit for flit 37012
Requeued flit 37012
1
Received nack credit for flit 41737
Requeued flit 41737
Received nack credit for flit 47916
Requeued flit 47916
5
3
1
Received nack credit for flit 35230
Requeued flit 35230
Received nack credit for flit 40525
Requeued flit 40525
1
9
Received nack credit for flit 48806
Requeued flit 48806
Received nack credit for flit 48774
Requeued flit 48774
Received nack credit for flit 29699
Requeued flit 29699
1
1
3
1
Received nack credit for flit 48878
Requeued flit 48878
Received nack credit for flit 44170
Requeued flit 44170
Received nack credit for flit 49318
Requeued flit 49318
Received nack credit for flit 43367
Requeued flit 43367
6
2
3
Received nack credit for flit 37141
Requeued flit 37141
5
4
2
1
Received nack credit for flit 42463
Requeued flit 42463
6
Received nack credit for flit 36952
Requeued flit 36952
Received nack credit for flit 40165
Requeued flit 40165
Received nack credit for flit 44056
Requeued flit 44056
Received nack credit for flit 50325
Requeued flit 50325
Received nack credit for flit 42157
Requeued flit 42157
Received nack credit for flit 37906
Requeued flit 37906
2
2
Received nack credit for flit 51281
Requeued flit 51281
Received nack credit for flit 50241
Requeued flit 50241
1
4
Received nack credit for flit 51812
Requeued flit 51812
Received nack credit for flit 47826
Requeued flit 47826
3
5
Received nack credit for flit 44372
Requeued flit 44372
3
Received nack credit for flit 38466
Requeued flit 38466
Received nack credit for flit 39239
Requeued flit 39239
5
3
Received nack credit for flit 38273
Requeued flit 38273
3
Received nack credit for flit 46028
Requeued flit 46028
Received nack credit for flit 43422
Requeued flit 43422
7
1
Received nack credit for flit 41590
Requeued flit 41590
3
Received nack credit for flit 48169
Requeued flit 48169
Received nack credit for flit 46280
Requeued flit 46280
5
5
Received nack credit for flit 39409
Requeued flit 39409
2
Received nack credit for flit 41109
Requeued flit 41109
4
Received nack credit for flit 54835
Requeued flit 54835
2
Received nack credit for flit 51177
Requeued flit 51177
Received nack credit for flit 49144
Requeued flit 49144
3
Received nack credit for flit 46436
Requeued flit 46436
4
3
7
Received nack credit for flit 54560
Requeued flit 54560
Received nack credit for flit 47887
Requeued flit 47887
2
2
5
Received nack credit for flit 41567
Requeued flit 41567
7
Received nack credit for flit 42527
Requeued flit 42527
6
6
7
Received nack credit for flit 46316
Requeued flit 46316
Received nack credit for flit 45840
Requeued flit 45840
Received nack credit for flit 42230
Requeued flit 42230
Received nack credit for flit 36751
Requeued flit 36751
Received nack credit for flit 39860
Requeued flit 39860
1
3
Received nack credit for flit 56854
Requeued flit 56854
Received nack credit for flit 46239
Requeued flit 46239
1
Received nack credit for flit 49695
Requeued flit 49695
10
3
2
Received nack credit for flit 34198
Requeued flit 34198
5
Received nack credit for flit 42531
Requeued flit 42531
Received nack credit for flit 47165
Requeued flit 47165
Received nack credit for flit 38196
Requeued flit 38196
1
2
Received nack credit for flit 57877
Requeued flit 57877
Received nack credit for flit 42511
Requeued flit 42511
1
Received nack credit for flit 58210
Requeued flit 58210
1
2
4
Received nack credit for flit 52963
Requeued flit 52963
Received nack credit for flit 42292
Requeued flit 42292
Received nack credit for flit 43877
Requeued flit 43877
2
3
1
1
Received nack credit for flit 43327
Requeued flit 43327
Received nack credit for flit 43536
Requeued flit 43536
Received nack credit for flit 59035
Requeued flit 59035
1
2
Received nack credit for flit 59212
Requeued flit 59212
Received nack credit for flit 43685
Requeued flit 43685
1
Received nack credit for flit 59302
Requeued flit 59302
Received nack credit for flit 59192
Requeued flit 59192
7
Received nack credit for flit 41745
Requeued flit 41745
10
1
Received nack credit for flit 53087
Requeued flit 53087
Received nack credit for flit 38619
Requeued flit 38619
6
1
1
1
Received nack credit for flit 43074
Requeued flit 43074
Received nack credit for flit 60194
Requeued flit 60194
3
Received nack credit for flit 60605
Requeued flit 60605
Received nack credit for flit 60636
Requeued flit 60636
Received nack credit for flit 60355
Requeued flit 60355
1
7
7
Received nack credit for flit 60035
Requeued flit 60035
8
3
Received nack credit for flit 41720
Requeued flit 41720
Received nack credit for flit 45196
Requeued flit 45196
Received nack credit for flit 43350
Requeued flit 43350
8
4
1
Received nack credit for flit 61170
Requeued flit 61170
Received nack credit for flit 51281
Requeued flit 51281
Received nack credit for flit 44532
Requeued flit 44532
Received nack credit for flit 61786
Requeued flit 61786
3
Received nack credit for flit 51143
Requeued flit 51143
1
3
Received nack credit for flit 62769
Requeued flit 62769
3
Received nack credit for flit 50207
Requeued flit 50207
7
13
Received nack credit for flit 56461
Requeued flit 56461
Received nack credit for flit 57732
Requeued flit 57732
Received nack credit for flit 38304
Requeued flit 38304
1
Received nack credit for flit 63494
Requeued flit 63494
1
1
Received nack credit for flit 63838
Requeued flit 63838
Received nack credit for flit 63924
Requeued flit 63924
1
6
Received nack credit for flit 63775
Requeued flit 63775
1
Received nack credit for flit 50035
Requeued flit 50035
2
3
Received nack credit for flit 52230
Requeued flit 52230
Received nack credit for flit 63253
Requeued flit 63253
Received nack credit for flit 55413
Requeued flit 55413
1
Received nack credit for flit 63928
Requeued flit 63928
4
5
Received nack credit for flit 59822
Requeued flit 59822
Received nack credit for flit 45656
Requeued flit 45656
3
Received nack credit for flit 56834
Requeued flit 56834
3
Received nack credit for flit 57603
Requeued flit 57603
1
Received nack credit for flit 60548
Requeued flit 60548
2
1
1
Received nack credit for flit 55577
Requeued flit 55577
Received nack credit for flit 67166
Requeued flit 67166
7
Received nack credit for flit 67283
Requeued flit 67283
3
Received nack credit for flit 38552
Requeued flit 38552
Received nack credit for flit 50193
Requeued flit 50193
2
Received nack credit for flit 51475
Requeued flit 51475
1
7
Received nack credit for flit 67917
Requeued flit 67917
Received nack credit for flit 49100
Requeued flit 49100
3
3
Received nack credit for flit 54842
Requeued flit 54842
Received nack credit for flit 54260
Requeued flit 54260
11
3
Received nack credit for flit 68554
Requeued flit 68554
Received nack credit for flit 46140
Requeued flit 46140
1
3
1
Received nack credit for flit 68845
Requeued flit 68845
Received nack credit for flit 66075
Requeued flit 66075
Received nack credit for flit 69542
Requeued flit 69542
4
1
2
Received nack credit for flit 61378
Requeued flit 61378
Received nack credit for flit 69718
Requeued flit 69718
Received nack credit for flit 69881
Requeued flit 69881
1
1
1
1
Received nack credit for flit 58174
Requeued flit 58174
Received nack credit for flit 70199
Requeued flit 70199
Received nack credit for flit 58626
Requeued flit 58626
Received nack credit for flit 70294
Requeued flit 70294
1
Received nack credit for flit 63326
Requeued flit 63326
4
Received nack credit for flit 62106
Requeued flit 62106
1
1
Received nack credit for flit 71764
Requeued flit 71764
Received nack credit for flit 61148
Requeued flit 61148
2
6
2
Received nack credit for flit 64279
Requeued flit 64279
Received nack credit for flit 47547
Requeued flit 47547
Received nack credit for flit 69378
Requeued flit 69378
2
2
4
Received nack credit for flit 72265
Requeued flit 72265
Received nack credit for flit 71765
Requeued flit 71765
Received nack credit for flit 51672
Requeued flit 51672
2
1
Received nack credit for flit 67519
Requeued flit 67519
4
Received nack credit for flit 65060
Requeued flit 65060
Received nack credit for flit 64404
Requeued flit 64404
2
Received nack credit for flit 60801
Requeued flit 60801
2
Received nack credit for flit 72970
Requeued flit 72970
6
Received nack credit for flit 60411
Requeued flit 60411
4
2
2
Received nack credit for flit 66666
Requeued flit 66666
1
Received nack credit for flit 55032
Requeued flit 55032
Received nack credit for flit 74585
Requeued flit 74585
Received nack credit for flit 75052
Requeued flit 75052
6
1
Received nack credit for flit 75566
Requeued flit 75566
Received nack credit for flit 53222
Requeued flit 53222
1
2
Received nack credit for flit 76382
Requeued flit 76382
Received nack credit for flit 76075
Requeued flit 76075
2
Received nack credit for flit 68089
Requeued flit 68089
5
Received nack credit for flit 58387
Requeued flit 58387
2
Received nack credit for flit 76996
Requeued flit 76996
4
4
Received nack credit for flit 67690
Requeued flit 67690
Received nack credit for flit 57741
Requeued flit 57741
1
Received nack credit for flit 69807
Requeued flit 69807
5
Received nack credit for flit 57099
Requeued flit 57099
1
Received nack credit for flit 78799
Requeued flit 78799
3
2
4
Received nack credit for flit 57254
Requeued flit 57254
Received nack credit for flit 76896
Requeued flit 76896
Received nack credit for flit 72605
Requeued flit 72605
4
Received nack credit for flit 72684
Requeued flit 72684
4
3
Received nack credit for flit 59142
Requeued flit 59142
Received nack credit for flit 70691
Requeued flit 70691
3
1
Received nack credit for flit 72311
Requeued flit 72311
Received nack credit for flit 67355
Requeued flit 67355
2
2
1
8
Received nack credit for flit 75494
Requeued flit 75494
Received nack credit for flit 81302
Requeued flit 81302
Received nack credit for flit 80346
Requeued flit 80346
Received nack credit for flit 68285
Requeued flit 68285
8
Received nack credit for flit 52856
Requeued flit 52856
5
Received nack credit for flit 57876
Requeued flit 57876
3
1
Received nack credit for flit 72038
Requeued flit 72038
5
Received nack credit for flit 66018
Requeued flit 66018
4
4
10
Received nack credit for flit 73033
Requeued flit 73033
Received nack credit for flit 60563
Requeued flit 60563
Received nack credit for flit 60434
Requeued flit 60434
2
1
Received nack credit for flit 52820
Requeued flit 52820
Received nack credit for flit 73704
Requeued flit 73704
8
2
Received nack credit for flit 81140
Requeued flit 81140
2
2
Received nack credit for flit 60086
Requeued flit 60086
Received nack credit for flit 73542
Requeued flit 73542
2
Received nack credit for flit 73111
Requeued flit 73111
Received nack credit for flit 83331
Requeued flit 83331
Received nack credit for flit 74877
Requeued flit 74877
1
10
Received nack credit for flit 83963
Requeued flit 83963
Received nack credit for flit 51901
Requeued flit 51901
5
2
Received nack credit for flit 76372
Requeued flit 76372
2
Received nack credit for flit 62247
Requeued flit 62247
5
Received nack credit for flit 84254
Requeued flit 84254
Received nack credit for flit 68626
Requeued flit 68626
2
Received nack credit for flit 70913
Requeued flit 70913
1
3
Received nack credit for flit 85913
Requeued flit 85913
Received nack credit for flit 78008
Requeued flit 78008
6
Received nack credit for flit 57823
Requeued flit 57823
5
2
Received nack credit for flit 75668
Requeued flit 75668
Received nack credit for flit 62047
Requeued flit 62047
2
Received nack credit for flit 65519
Requeued flit 65519
2
1
Received nack credit for flit 86696
Requeued flit 86696
3
9
Received nack credit for flit 87495
Requeued flit 87495
Received nack credit for flit 54880
Requeued flit 54880
Received nack credit for flit 72439
Requeued flit 72439
2
Received nack credit for flit 78969
Requeued flit 78969
2
6
1
Received nack credit for flit 87060
Requeued flit 87060
Received nack credit for flit 78039
Requeued flit 78039
Received nack credit for flit 74399
Requeued flit 74399
1
1
Received nack credit for flit 88623
Requeued flit 88623
1
1
Received nack credit for flit 88682
Requeued flit 88682
2
1
1
Received nack credit for flit 74674
Requeued flit 74674
Received nack credit for flit 65582
Requeued flit 65582
Received nack credit for flit 88844
Requeued flit 88844
Received nack credit for flit 80685
Requeued flit 80685
Received nack credit for flit 88809
Requeued flit 88809
3
5
Received nack credit for flit 78324
Requeued flit 78324
1
2
Received nack credit for flit 66031
Requeued flit 66031
1
Received nack credit for flit 83478
Requeued flit 83478
8
1
Received nack credit for flit 60327
Requeued flit 60327
Received nack credit for flit 89746
Requeued flit 89746
Received nack credit for flit 89570
Requeued flit 89570
Received nack credit for flit 78851
Requeued flit 78851
1
Received nack credit for flit 90111
Requeued flit 90111
3
10
2
Received nack credit for flit 64387
Requeued flit 64387
1
Received nack credit for flit 90547
Requeued flit 90547
Received nack credit for flit 69044
Requeued flit 69044
7
Received nack credit for flit 91100
Requeued flit 91100
5
Received nack credit for flit 67746
Requeued flit 67746
5
Received nack credit for flit 62121
Requeued flit 62121
Received nack credit for flit 64431
Requeued flit 64431
1
Received nack credit for flit 76303
Requeued flit 76303
1
2
1
Received nack credit for flit 91964
Requeued flit 91964
Received nack credit for flit 92022
Requeued flit 92022
Received nack credit for flit 92213
Requeued flit 92213
1
5
Received nack credit for flit 91822
Requeued flit 91822
Received nack credit for flit 67755
Requeued flit 67755
1
5
1
Received nack credit for flit 77099
Requeued flit 77099
Received nack credit for flit 93029
Requeued flit 93029
Received nack credit for flit 93166
Requeued flit 93166
8
1
Received nack credit for flit 59373
Requeued flit 59373
3
Received nack credit for flit 93531
Requeued flit 93531
3
Received nack credit for flit 81325
Requeued flit 81325
Received nack credit for flit 77995
Requeued flit 77995
7
6
Received nack credit for flit 58363
Requeued flit 58363
5
1
2
2
Received nack credit for flit 66434
Requeued flit 66434
2
1
Received nack credit for flit 77277
Requeued flit 77277
Received nack credit for flit 81619
Requeued flit 81619
Received nack credit for flit 93835
Requeued flit 93835
Received nack credit for flit 94174
Requeued flit 94174
Received nack credit for flit 77676
Requeued flit 77676
Received nack credit for flit 94600
Requeued flit 94600
7
Received nack credit for flit 68847
Requeued flit 68847
8
1
4
1
3
Received nack credit for flit 69552
Requeued flit 69552
Received nack credit for flit 87233
Requeued flit 87233
Received nack credit for flit 78877
Requeued flit 78877
Received nack credit for flit 95238
Requeued flit 95238
Received nack credit for flit 78338
Requeued flit 78338
1
Received nack credit for flit 95599
Requeued flit 95599
5
4
Received nack credit for flit 67386
Requeued flit 67386
4
1
Received nack credit for flit 87742
Requeued flit 87742
Received nack credit for flit 79412
Requeued flit 79412
Received nack credit for flit 96198
Requeued flit 96198
6
Received nack credit for flit 67442
Requeued flit 67442
3
Received nack credit for flit 81183
Requeued flit 81183
1
7
Received nack credit for flit 77672
Requeued flit 77672
4
Received nack credit for flit 62383
Requeued flit 62383
1
Received nack credit for flit 74040
Requeued flit 74040
Received nack credit for flit 96917
Requeued flit 96917
2
3
2
Received nack credit for flit 92452
Requeued flit 92452
Received nack credit for flit 71301
Requeued flit 71301
Received nack credit for flit 82211
Requeued flit 82211
1
Received nack credit for flit 97915
Requeued flit 97915
1
1
12
1
Received nack credit for flit 81573
Requeued flit 81573
Received nack credit for flit 98505
Requeued flit 98505
1
Received nack credit for flit 98634
Requeued flit 98634
Received nack credit for flit 62317
Requeued flit 62317
Received nack credit for flit 86859
Requeued flit 86859
2
Received nack credit for flit 78902
Requeued flit 78902
2
3
1
2
1
Received nack credit for flit 81160
Requeued flit 81160
Received nack credit for flit 81342
Requeued flit 81342
Received nack credit for flit 98776
Requeued flit 98776
Received nack credit for flit 99342
Requeued flit 99342
1
Received nack credit for flit 82575
Requeued flit 82575
1
1
Received nack credit for flit 89352
Requeued flit 89352
Received nack credit for flit 99653
Requeued flit 99653
Received nack credit for flit 81385
Requeued flit 81385
2
Received nack credit for flit 73049
Requeued flit 73049
1
1
Received nack credit for flit 100883
Requeued flit 100883
2
Received nack credit for flit 100394
Requeued flit 100394
Received nack credit for flit 101095
Requeued flit 101095
2
1
Received nack credit for flit 74127
Requeued flit 74127
Received nack credit for flit 83808
Requeued flit 83808
6
1
1
Received nack credit for flit 101754
Requeued flit 101754
Received nack credit for flit 74260
Requeued flit 74260
Received nack credit for flit 85027
Requeued flit 85027
5
6
Received nack credit for flit 94521
Requeued flit 94521
2
Received nack credit for flit 71053
Requeued flit 71053
2
1
Received nack credit for flit 92055
Requeued flit 92055
1
Received nack credit for flit 84544
Requeued flit 84544
6
2
Received nack credit for flit 102554
Requeued flit 102554
Received nack credit for flit 102662
Requeued flit 102662
Received nack credit for flit 74897
Requeued flit 74897
7
2
2
Received nack credit for flit 79929
Requeued flit 79929
Received nack credit for flit 90487
Requeued flit 90487
Received nack credit for flit 103373
Requeued flit 103373
1
1
2
1
1
4
Received nack credit for flit 95532
Requeued flit 95532
Received nack credit for flit 85128
Requeued flit 85128
Received nack credit for flit 103832
Requeued flit 103832
Received nack credit for flit 93066
Requeued flit 93066
Received nack credit for flit 93110
Requeued flit 93110
Received nack credit for flit 103977
Requeued flit 103977
1
4
Received nack credit for flit 103725
Requeued flit 103725
Received nack credit for flit 104133
Requeued flit 104133
1
1
Received nack credit for flit 104564
Requeued flit 104564
1
Received nack credit for flit 104919
Requeued flit 104919
8
Received nack credit for flit 84492
Requeued flit 84492
Received nack credit for flit 88552
Requeued flit 88552
2
1
Received nack credit for flit 86451
Requeued flit 86451
Received nack credit for flit 105733
Requeued flit 105733
2
1
2
Received nack credit for flit 104603
Requeued flit 104603
Received nack credit for flit 106458
Requeued flit 106458
Received nack credit for flit 105968
Requeued flit 105968
5
2
Received nack credit for flit 78371
Requeued flit 78371
Received nack credit for flit 85507
Requeued flit 85507
9
Received nack credit for flit 77110
Requeued flit 77110
1
3
2
Received nack credit for flit 89533
Requeued flit 89533
Received nack credit for flit 84617
Requeued flit 84617
Received nack credit for flit 107346
Requeued flit 107346
1
2
2
3
Received nack credit for flit 107361
Requeued flit 107361
3
Received nack credit for flit 107304
Requeued flit 107304
6
Received nack credit for flit 79118
Requeued flit 79118
Received nack credit for flit 95447
Requeued flit 95447
Received nack credit for flit 90206
Requeued flit 90206
1
1
Received nack credit for flit 91758
Requeued flit 91758
Received nack credit for flit 108324
Requeued flit 108324
Received nack credit for flit 108226
Requeued flit 108226
3
1
1
Received nack credit for flit 100404
Requeued flit 100404
Received nack credit for flit 108941
Requeued flit 108941
1
Received nack credit for flit 97113
Requeued flit 97113
1
Received nack credit for flit 97981
Requeued flit 97981
Received nack credit for flit 109229
Requeued flit 109229
2
2
Received nack credit for flit 90418
Requeued flit 90418
8
Received nack credit for flit 78583
Requeued flit 78583
1
Received nack credit for flit 76037
Requeued flit 76037
Received nack credit for flit 110391
Requeued flit 110391
3
Received nack credit for flit 84267
Requeued flit 84267
1
Received nack credit for flit 104294
Requeued flit 104294
7
Received nack credit for flit 94342
Requeued flit 94342
2
4
7
2
Received nack credit for flit 90454
Requeued flit 90454
Received nack credit for flit 78654
Requeued flit 78654
1
2
Received nack credit for flit 92634
Requeued flit 92634
2
Received nack credit for flit 112040
Requeued flit 112040
Received nack credit for flit 102570
Requeued flit 102570
Received nack credit for flit 80743
Requeued flit 80743
9
1
Received nack credit for flit 101823
Requeued flit 101823
Received nack credit for flit 76302
Requeued flit 76302
1
1
Received nack credit for flit 112561
Requeued flit 112561
Received nack credit for flit 92849
Requeued flit 92849
Received nack credit for flit 112846
Requeued flit 112846
1
1
Received nack credit for flit 99580
Requeued flit 99580
Received nack credit for flit 100702
Requeued flit 100702
1
1
Received nack credit for flit 95274
Requeued flit 95274
Received nack credit for flit 113552
Requeued flit 113552
2
Received nack credit for flit 96234
Requeued flit 96234
1
Received nack credit for flit 110838
Requeued flit 110838
1
Received nack credit for flit 93959
Requeued flit 93959
8
Received nack credit for flit 78220
Requeued flit 78220
3
5
3
7
5
Received nack credit for flit 83604
Requeued flit 83604
Received nack credit for flit 84889
Requeued flit 84889
Received nack credit for flit 111776
Requeued flit 111776
Received nack credit for flit 76531
Requeued flit 76531
Received nack credit for flit 100192
Requeued flit 100192
3
1
Received nack credit for flit 97235
Requeued flit 97235
5
Received nack credit for flit 116416
Requeued flit 116416
5
Received nack credit for flit 116027
Requeued flit 116027
1
Received nack credit for flit 83914
Requeued flit 83914
2
1
1
9
Received nack credit for flit 116912
Requeued flit 116912
Received nack credit for flit 104042
Requeued flit 104042
Received nack credit for flit 97529
Requeued flit 97529
Received nack credit for flit 116996
Requeued flit 116996
Received nack credit for flit 71318
Requeued flit 71318
1
Received nack credit for flit 117100
Requeued flit 117100
9
Received nack credit for flit 100788
Requeued flit 100788
1
9
Received nack credit for flit 96885
Requeued flit 96885
Received nack credit for flit 76010
Requeued flit 76010
2
Received nack credit for flit 99608
Requeued flit 99608
7
4
Received nack credit for flit 85525
Requeued flit 85525
5
Received nack credit for flit 108663
Requeued flit 108663
1
1
Received nack credit for flit 87621
Requeued flit 87621
2
Received nack credit for flit 97683
Requeued flit 97683
Received nack credit for flit 118600
Requeued flit 118600
2
Received nack credit for flit 118790
Requeued flit 118790
1
3
Received nack credit for flit 98921
Requeued flit 98921
1
Received nack credit for flit 119167
Requeued flit 119167
Received nack credit for flit 117895
Requeued flit 117895
1
Received nack credit for flit 105635
Requeued flit 105635
Received nack credit for flit 98637
Requeued flit 98637
1
1
1
1
Received nack credit for flit 98781
Requeued flit 98781
1
Received nack credit for flit 107352
Requeued flit 107352
Received nack credit for flit 105583
Requeued flit 105583
Received nack credit for flit 106941
Requeued flit 106941
1
Received nack credit for flit 105212
Requeued flit 105212
1
4
4
Received nack credit for flit 120147
Requeued flit 120147
Received nack credit for flit 120267
Requeued flit 120267
Received nack credit for flit 88920
Requeued flit 88920
3
6
Received nack credit for flit 103586
Requeued flit 103586
Received nack credit for flit 110478
Requeued flit 110478
Received nack credit for flit 97186
Requeued flit 97186
10
1
5
4
Received nack credit for flit 120481
Requeued flit 120481
Received nack credit for flit 74352
Requeued flit 74352
Received nack credit for flit 82430
Requeued flit 82430
Received nack credit for flit 87087
Requeued flit 87087
1
4
Received nack credit for flit 109046
Requeued flit 109046
Received nack credit for flit 107806
Requeued flit 107806
1
Received nack credit for flit 121938
Requeued flit 121938
1
1
Received nack credit for flit 108880
Requeued flit 108880
Received nack credit for flit 122428
Requeued flit 122428
5
Received nack credit for flit 104800
Requeued flit 104800
2
Received nack credit for flit 91624
Requeued flit 91624
4
2
3
Received nack credit for flit 106773
Requeued flit 106773
Received nack credit for flit 105694
Requeued flit 105694
Received nack credit for flit 103863
Requeued flit 103863
3
Received nack credit for flit 123640
Requeued flit 123640
10
4
10
6
5
Received nack credit for flit 92101
Requeued flit 92101
Received nack credit for flit 90166
Requeued flit 90166
2
3
Received nack credit for flit 88566
Requeued flit 88566
Received nack credit for flit 88945
Requeued flit 88945
Received nack credit for flit 103340
Requeued flit 103340
Received nack credit for flit 123782
Requeued flit 123782
4
Received nack credit for flit 74426
Requeued flit 74426
Received nack credit for flit 106090
Requeued flit 106090
6
Received nack credit for flit 106161
Requeued flit 106161
1
Received nack credit for flit 125290
Requeued flit 125290
1
1
Received nack credit for flit 125647
Requeued flit 125647
Received nack credit for flit 125767
Requeued flit 125767
1
1
6
1
Received nack credit for flit 105259
Requeued flit 105259
Received nack credit for flit 125698
Requeued flit 125698
Received nack credit for flit 105631
Requeued flit 105631
Received nack credit for flit 126381
Requeued flit 126381
1
4
1
Received nack credit for flit 126548
Requeued flit 126548
3
Received nack credit for flit 127086
Requeued flit 127086
Received nack credit for flit 112475
Requeued flit 112475
7
Received nack credit for flit 119825
Requeued flit 119825
Received nack credit for flit 105368
Requeued flit 105368
1
Received nack credit for flit 114357
Requeued flit 114357
4
5
Received nack credit for flit 91867
Requeued flit 91867
Received nack credit for flit 100260
Requeued flit 100260
7
Received nack credit for flit 88979
Requeued flit 88979
1
2
10
Received nack credit for flit 128546
Requeued flit 128546
Received nack credit for flit 129003
Requeued flit 129003
Received nack credit for flit 79670
Requeued flit 79670
2
1
2
Received nack credit for flit 107725
Requeued flit 107725
Received nack credit for flit 129436
Requeued flit 129436
Received nack credit for flit 116706
Requeued flit 116706
2
3
Received nack credit for flit 97552
Requeued flit 97552
Received nack credit for flit 100945
Requeued flit 100945
2
Received nack credit for flit 129998
Requeued flit 129998
5
5
1
Received nack credit for flit 97775
Requeued flit 97775
4
Received nack credit for flit 94103
Requeued flit 94103
Received nack credit for flit 130594
Requeued flit 130594
Received nack credit for flit 94501
Requeued flit 94501
7
Received nack credit for flit 89031
Requeued flit 89031
4
Received nack credit for flit 104666
Requeued flit 104666
3
3
3
1
Received nack credit for flit 96067
Requeued flit 96067
4
Received nack credit for flit 131049
Requeued flit 131049
Received nack credit for flit 95710
Requeued flit 95710
1
Received nack credit for flit 131595
Requeued flit 131595
Received nack credit for flit 113760
Requeued flit 113760
Received nack credit for flit 132411
Requeued flit 132411
1
3
Received nack credit for flit 132675
Requeued flit 132675
3
Received nack credit for flit 97088
Requeued flit 97088
Received nack credit for flit 96056
Requeued flit 96056
2
3
5
Received nack credit for flit 132545
Requeued flit 132545
3
Received nack credit for flit 99672
Requeued flit 99672
1
Received nack credit for flit 121228
Requeued flit 121228
Received nack credit for flit 99096
Requeued flit 99096
5
1
Received nack credit for flit 121102
Requeued flit 121102
Received nack credit for flit 133247
Requeued flit 133247
Received nack credit for flit 96254
Requeued flit 96254
3
Received nack credit for flit 112686
Requeued flit 112686
3
5
5
Received nack credit for flit 95361
Requeued flit 95361
Received nack credit for flit 98414
Requeued flit 98414
Received nack credit for flit 99809
Requeued flit 99809
6
4
Received nack credit for flit 90257
Requeued flit 90257
1
1
Received nack credit for flit 125431
Requeued flit 125431
1
Received nack credit for flit 133732
Requeued flit 133732
Received nack credit for flit 124604
Requeued flit 124604
2
3
Received nack credit for flit 110617
Requeued flit 110617
Received nack credit for flit 135571
Requeued flit 135571
7
Received nack credit for flit 98269
Requeued flit 98269
Received nack credit for flit 93808
Requeued flit 93808
5
4
5
Received nack credit for flit 105396
Requeued flit 105396
3
3
Received nack credit for flit 93573
Requeued flit 93573
Received nack credit for flit 122897
Requeued flit 122897
Received nack credit for flit 129177
Requeued flit 129177
Received nack credit for flit 114284
Requeued flit 114284
1
5
Received nack credit for flit 115036
Requeued flit 115036
1
8
Received nack credit for flit 99046
Requeued flit 99046
4
Received nack credit for flit 136790
Requeued flit 136790
Received nack credit for flit 89851
Requeued flit 89851
Received nack credit for flit 119379
Requeued flit 119379
2
1
3
Received nack credit for flit 103098
Requeued flit 103098
Received nack credit for flit 116779
Requeued flit 116779
Received nack credit for flit 121363
Requeued flit 121363
2
1
Received nack credit for flit 136611
Requeued flit 136611
Received nack credit for flit 138506
Requeued flit 138506
1
Received nack credit for flit 138960
Requeued flit 138960
2
9
6
1
Received nack credit for flit 94712
Requeued flit 94712
Received nack credit for flit 138875
Requeued flit 138875
Received nack credit for flit 99926
Requeued flit 99926
4
Received nack credit for flit 139476
Requeued flit 139476
Received nack credit for flit 133183
Requeued flit 133183
2
8
2
Received nack credit for flit 130443
Requeued flit 130443
Received nack credit for flit 88138
Requeued flit 88138
3
Received nack credit for flit 103718
Requeued flit 103718
Received nack credit for flit 114119
Requeued flit 114119
7
1
1
Received nack credit for flit 100286
Requeued flit 100286
Received nack credit for flit 124310
Requeued flit 124310
Received nack credit for flit 140826
Requeued flit 140826
3
5
Received nack credit for flit 140979
Requeued flit 140979
Received nack credit for flit 104214
Requeued flit 104214
5
Received nack credit for flit 101526
Requeued flit 101526
1
6
5
Received nack credit for flit 121353
Requeued flit 121353
1
Received nack credit for flit 97775
Requeued flit 97775
Received nack credit for flit 115253
Requeued flit 115253
1
Received nack credit for flit 142756
Requeued flit 142756
1
10
Received nack credit for flit 142825
Requeued flit 142825
Received nack credit for flit 127465
Requeued flit 127465
Received nack credit for flit 88354
Requeued flit 88354
1
1
Received nack credit for flit 142550
Requeued flit 142550
Received nack credit for flit 142470
Requeued flit 142470
6
1
1
1
Received nack credit for flit 143367
Requeued flit 143367
Received nack credit for flit 126049
Requeued flit 126049
2
Received nack credit for flit 143606
Requeued flit 143606
Received nack credit for flit 102758
Requeued flit 102758
Received nack credit for flit 114080
Requeued flit 114080
1
1
Received nack credit for flit 144565
Requeued flit 144565
4
4
1
Received nack credit for flit 145194
Requeued flit 145194
Received nack credit for flit 100074
Requeued flit 100074
3
Received nack credit for flit 144527
Requeued flit 144527
Received nack credit for flit 127357
Requeued flit 127357
Received nack credit for flit 105013
Requeued flit 105013
2
3
Received nack credit for flit 129635
Requeued flit 129635
Received nack credit for flit 107091
Requeued flit 107091
2
1
4
Received nack credit for flit 145556
Requeued flit 145556
Received nack credit for flit 146239
Requeued flit 146239
Received nack credit for flit 118316
Requeued flit 118316
5
5
1
Received nack credit for flit 128447
Requeued flit 128447
5
1
6
Received nack credit for flit 146909
Requeued flit 146909
Received nack credit for flit 145583
Requeued flit 145583
Received nack credit for flit 97810
Requeued flit 97810
Received nack credit for flit 125942
Requeued flit 125942
Received nack credit for flit 103595
Requeued flit 103595
3
5
Received nack credit for flit 129928
Requeued flit 129928
1
Received nack credit for flit 102220
Requeued flit 102220
Received nack credit for flit 147620
Requeued flit 147620
1
3
5
Received nack credit for flit 147925
Requeued flit 147925
7
Received nack credit for flit 147258
Requeued flit 147258
1
Received nack credit for flit 104368
Requeued flit 104368
Received nack credit for flit 125396
Requeued flit 125396
5
Received nack credit for flit 147784
Requeued flit 147784
Received nack credit for flit 111661
Requeued flit 111661
2
1
Received nack credit for flit 121277
Requeued flit 121277
Received nack credit for flit 148553
Requeued flit 148553
2
1
Received nack credit for flit 118212
Requeued flit 118212
Received nack credit for flit 149060
Requeued flit 149060
1
1
1
1
Received nack credit for flit 127784
Requeued flit 127784
Received nack credit for flit 128483
Requeued flit 128483
Received nack credit for flit 149683
Requeued flit 149683
Received nack credit for flit 149656
Requeued flit 149656
1
Received nack credit for flit 149995
Requeued flit 149995
1
5
Received nack credit for flit 150711
Requeued flit 150711
2
Received nack credit for flit 104819
Requeued flit 104819
6
Received nack credit for flit 150803
Requeued flit 150803
Received nack credit for flit 110278
Requeued flit 110278
4
1
1
Received nack credit for flit 124012
Requeued flit 124012
1
Received nack credit for flit 151392
Requeued flit 151392
Received nack credit for flit 130316
Requeued flit 130316
Received nack credit for flit 151534
Requeued flit 151534
2
1
Received nack credit for flit 130790
Requeued flit 130790
4
Received nack credit for flit 152151
Requeued flit 152151
2
Received nack credit for flit 113666
Requeued flit 113666
1
1
Received nack credit for flit 151657
Requeued flit 151657
Received nack credit for flit 136361
Requeued flit 136361
3
Received nack credit for flit 152666
Requeued flit 152666
Received nack credit for flit 110601
Requeued flit 110601
1
Received nack credit for flit 138335
Requeued flit 138335
6
1
Received nack credit for flit 110467
Requeued flit 110467
5
9
Received nack credit for flit 132379
Requeued flit 132379
Received nack credit for flit 125292
Requeued flit 125292
Received nack credit for flit 98956
Requeued flit 98956
1
Received nack credit for flit 154474
Requeued flit 154474
1
4
Received nack credit for flit 154065
Requeued flit 154065
Received nack credit for flit 154117
Requeued flit 154117
1
2
Received nack credit for flit 154367
Requeued flit 154367
Received nack credit for flit 146069
Requeued flit 146069
5
Received nack credit for flit 104934
Requeued flit 104934
2
7
1
2
Received nack credit for flit 118555
Requeued flit 118555
Received nack credit for flit 119790
Requeued flit 119790
Received nack credit for flit 135561
Requeued flit 135561
Received nack credit for flit 156112
Requeued flit 156112
1
1
4
Received nack credit for flit 136367
Requeued flit 136367
10
Received nack credit for flit 136259
Requeued flit 136259
1
2
3
Received nack credit for flit 98164
Requeued flit 98164
Received nack credit for flit 116308
Requeued flit 116308
Received nack credit for flit 157678
Requeued flit 157678
Received nack credit for flit 156611
Requeued flit 156611
Received nack credit for flit 133878
Requeued flit 133878
6
3
Received nack credit for flit 124453
Requeued flit 124453
5
Received nack credit for flit 118766
Requeued flit 118766
Received nack credit for flit 113661
Requeued flit 113661
6
Received nack credit for flit 118617
Requeued flit 118617
1
4
Received nack credit for flit 137875
Requeued flit 137875
Received nack credit for flit 138772
Requeued flit 138772
1
1
1
Received nack credit for flit 138089
Requeued flit 138089
6
2
Received nack credit for flit 159331
Requeued flit 159331
Received nack credit for flit 159385
Requeued flit 159385
2
Received nack credit for flit 127790
Requeued flit 127790
Received nack credit for flit 142146
Requeued flit 142146
Received nack credit for flit 128452
Requeued flit 128452
6
2
Received nack credit for flit 130860
Requeued flit 130860
Received nack credit for flit 159891
Requeued flit 159891
3
1
Received nack credit for flit 146970
Requeued flit 146970
1
1
Received nack credit for flit 140513
Requeued flit 140513
Received nack credit for flit 161511
Requeued flit 161511
Received nack credit for flit 161670
Requeued flit 161670
2
Received nack credit for flit 161972
Requeued flit 161972
2
1
1
Received nack credit for flit 138799
Requeued flit 138799
Received nack credit for flit 162032
Requeued flit 162032
Received nack credit for flit 162360
Requeued flit 162360
3
2
Received nack credit for flit 153613
Requeued flit 153613
Received nack credit for flit 162617
Requeued flit 162617
3
2
8
Received nack credit for flit 134960
Requeued flit 134960
Received nack credit for flit 162099
Requeued flit 162099
2
Received nack credit for flit 130857
Requeued flit 130857
3
1
1
Received nack credit for flit 163524
Requeued flit 163524
Received nack credit for flit 120132
Requeued flit 120132
Received nack credit for flit 163727
Requeued flit 163727
1
Received nack credit for flit 163950
Requeued flit 163950
2
10
Received nack credit for flit 164103
Requeued flit 164103
7
Received nack credit for flit 164017
Requeued flit 164017
Received nack credit for flit 105415
Requeued flit 105415
2
Received nack credit for flit 104591
Requeued flit 104591
Received nack credit for flit 162941
Requeued flit 162941
1
2
Received nack credit for flit 164875
Requeued flit 164875
1
1
Received nack credit for flit 124183
Requeued flit 124183
Received nack credit for flit 164881
Requeued flit 164881
Received nack credit for flit 144336
Requeued flit 144336
8
8
Received nack credit for flit 103239
Requeued flit 103239
1
11
Received nack credit for flit 136299
Requeued flit 136299
Received nack credit for flit 165859
Requeued flit 165859
Received nack credit for flit 103867
Requeued flit 103867
4
4
8
1
3
Received nack credit for flit 143869
Requeued flit 143869
Received nack credit for flit 163953
Requeued flit 163953
Received nack credit for flit 110751
Requeued flit 110751
Received nack credit for flit 166713
Requeued flit 166713
Received nack credit for flit 133215
Requeued flit 133215
1
1
Received nack credit for flit 167026
Requeued flit 167026
Received nack credit for flit 146177
Requeued flit 146177
2
Received nack credit for flit 167378
Requeued flit 167378
5
1
Received nack credit for flit 120376
Requeued flit 120376
Received nack credit for flit 168078
Requeued flit 168078
1
1
1
Received nack credit for flit 149358
Requeued flit 149358
Received nack credit for flit 150477
Requeued flit 150477
Received nack credit for flit 167673
Requeued flit 167673
6
Received nack credit for flit 144668
Requeued flit 144668
5
6
Received nack credit for flit 120950
Requeued flit 120950
2
Received nack credit for flit 118025
Requeued flit 118025
1
Received nack credit for flit 148503
Requeued flit 148503
Received nack credit for flit 147187
Requeued flit 147187
7
Received nack credit for flit 124521
Requeued flit 124521
3
1
Received nack credit for flit 129819
Requeued flit 129819
Received nack credit for flit 170394
Requeued flit 170394
5
1
4
2
Received nack credit for flit 121961
Requeued flit 121961
Received nack credit for flit 158004
Requeued flit 158004
Received nack credit for flit 172029
Requeued flit 172029
Received nack credit for flit 171952
Requeued flit 171952
2
1
4
Received nack credit for flit 153313
Requeued flit 153313
Received nack credit for flit 151640
Requeued flit 151640
9
Received nack credit for flit 146900
Requeued flit 146900
4
Received nack credit for flit 172015
Requeued flit 172015
1
1
Received nack credit for flit 150335
Requeued flit 150335
Received nack credit for flit 161651
Requeued flit 161651
Received nack credit for flit 173103
Requeued flit 173103
2
3
Received nack credit for flit 154266
Requeued flit 154266
2
4
Received nack credit for flit 171727
Requeued flit 171727
Received nack credit for flit 172236
Requeued flit 172236
Received nack credit for flit 152986
Requeued flit 152986
6
1
1
6
Received nack credit for flit 132889
Requeued flit 132889
2
Received nack credit for flit 174216
Requeued flit 174216
Received nack credit for flit 174178
Requeued flit 174178
1
Received nack credit for flit 154526
Requeued flit 154526
7
Received nack credit for flit 137172
Requeued flit 137172
Received nack credit for flit 173598
Requeued flit 173598
4
Received nack credit for flit 133249
Requeued flit 133249
Received nack credit for flit 153700
Requeued flit 153700
6
4
Received nack credit for flit 147630
Requeued flit 147630
5
Received nack credit for flit 141161
Requeued flit 141161
7
Received nack credit for flit 122788
Requeued flit 122788
9
Received nack credit for flit 125003
Requeued flit 125003
3
1
3
Received nack credit for flit 160551
Requeued flit 160551
Received nack credit for flit 127591
Requeued flit 127591
Received nack credit for flit 175658
Requeued flit 175658
2
Received nack credit for flit 150686
Requeued flit 150686
1
Received nack credit for flit 153616
Requeued flit 153616
2
1
Received nack credit for flit 175183
Requeued flit 175183
2
Received nack credit for flit 176357
Requeued flit 176357
Received nack credit for flit 171896
Requeued flit 171896
1
1
Received nack credit for flit 176086
Requeued flit 176086
Received nack credit for flit 174530
Requeued flit 174530
Received nack credit for flit 176066
Requeued flit 176066
1
3
4
Received nack credit for flit 177017
Requeued flit 177017
8
Received nack credit for flit 175704
Requeued flit 175704
Received nack credit for flit 153393
Requeued flit 153393
1
Received nack credit for flit 119304
Requeued flit 119304
4
Received nack credit for flit 176791
Requeued flit 176791
Received nack credit for flit 129925
Requeued flit 129925
1
5
6
Received nack credit for flit 126768
Requeued flit 126768
Received nack credit for flit 175737
Requeued flit 175737
Received nack credit for flit 129714
Requeued flit 129714
1
1
1
1
3
Received nack credit for flit 163984
Requeued flit 163984
Received nack credit for flit 157660
Requeued flit 157660
Received nack credit for flit 140806
Requeued flit 140806
Received nack credit for flit 178840
Requeued flit 178840
Received nack credit for flit 177387
Requeued flit 177387
8
4
Received nack credit for flit 113384
Requeued flit 113384
Received nack credit for flit 167791
Requeued flit 167791
1
1
1
Received nack credit for flit 180088
Requeued flit 180088
Received nack credit for flit 159458
Requeued flit 159458
4
Received nack credit for flit 180219
Requeued flit 180219
8
Received nack credit for flit 179972
Requeued flit 179972
Received nack credit for flit 127037
Requeued flit 127037
9
2
3
5
Received nack credit for flit 120126
Requeued flit 120126
2
Received nack credit for flit 138650
Requeued flit 138650
Received nack credit for flit 146905
Requeued flit 146905
4
Received nack credit for flit 149892
Requeued flit 149892
Received nack credit for flit 179733
Requeued flit 179733
Received nack credit for flit 178849
Requeued flit 178849
8
Received nack credit for flit 113810
Requeued flit 113810
1
3
2
2
Received nack credit for flit 161120
Requeued flit 161120
Received nack credit for flit 181689
Requeued flit 181689
Received nack credit for flit 174015
Requeued flit 174015
2
Received nack credit for flit 179730
Requeued flit 179730
Received nack credit for flit 181793
Requeued flit 181793
2
1
4
3
Received nack credit for flit 171285
Requeued flit 171285
Received nack credit for flit 180095
Requeued flit 180095
Received nack credit for flit 156502
Requeued flit 156502
Received nack credit for flit 149253
Requeued flit 149253
5
7
Received nack credit for flit 130137
Requeued flit 130137
1
Received nack credit for flit 127412
Requeued flit 127412
Received nack credit for flit 182248
Requeued flit 182248
1
1
2
1
Received nack credit for flit 183885
Requeued flit 183885
Received nack credit for flit 182460
Requeued flit 182460
4
7
Received nack credit for flit 184046
Requeued flit 184046
1
Received nack credit for flit 159371
Requeued flit 159371
Received nack credit for flit 131865
Requeued flit 131865
Received nack credit for flit 183161
Requeued flit 183161
Received nack credit for flit 129471
Requeued flit 129471
1
5
Received nack credit for flit 184769
Requeued flit 184769
6
8
Received nack credit for flit 174452
Requeued flit 174452
8
Received nack credit for flit 125290
Requeued flit 125290
Received nack credit for flit 117294
Requeued flit 117294
Received nack credit for flit 156678
Requeued flit 156678
1
Received nack credit for flit 185485
Requeued flit 185485
1
1
1
Received nack credit for flit 186081
Requeued flit 186081
5
Received nack credit for flit 185885
Requeued flit 185885
Received nack credit for flit 186250
Requeued flit 186250
Received nack credit for flit 132534
Requeued flit 132534
5
3
3
Received nack credit for flit 174454
Requeued flit 174454
Received nack credit for flit 148238
Requeued flit 148238
Received nack credit for flit 185150
Requeued flit 185150
7
Received nack credit for flit 164582
Requeued flit 164582
1
1
Received nack credit for flit 186399
Requeued flit 186399
2
3
Received nack credit for flit 176592
Requeued flit 176592
Received nack credit for flit 146696
Requeued flit 146696
Received nack credit for flit 145493
Requeued flit 145493
5
3
Received nack credit for flit 175829
Requeued flit 175829
Received nack credit for flit 167017
Requeued flit 167017
1
Received nack credit for flit 169583
Requeued flit 169583
2
1
Received nack credit for flit 148278
Requeued flit 148278
Received nack credit for flit 171365
Requeued flit 171365
6
Received nack credit for flit 168080
Requeued flit 168080
8
1
1
Received nack credit for flit 182674
Requeued flit 182674
Received nack credit for flit 128192
Requeued flit 128192
4
Received nack credit for flit 191651
Requeued flit 191651
2
Received nack credit for flit 147237
Requeued flit 147237
Received nack credit for flit 170937
Requeued flit 170937
7
1
Received nack credit for flit 131707
Requeued flit 131707
3
4
Received nack credit for flit 192549
Requeued flit 192549
2
Received nack credit for flit 139342
Requeued flit 139342
Received nack credit for flit 180727
Requeued flit 180727
Received nack credit for flit 170438
Requeued flit 170438
1
1
Received nack credit for flit 193271
Requeued flit 193271
Received nack credit for flit 186381
Requeued flit 186381
1
1
Received nack credit for flit 192648
Requeued flit 192648
3
Received nack credit for flit 193806
Requeued flit 193806
Received nack credit for flit 187769
Requeued flit 187769
5
1
4
Received nack credit for flit 161539
Requeued flit 161539
4
1
Received nack credit for flit 168028
Requeued flit 168028
Received nack credit for flit 194153
Requeued flit 194153
Received nack credit for flit 187405
Requeued flit 187405
Received nack credit for flit 174835
Requeued flit 174835
7
5
Received nack credit for flit 165833
Requeued flit 165833
Received nack credit for flit 145582
Requeued flit 145582
3
1
Received nack credit for flit 194146
Requeued flit 194146
8
6
Received nack credit for flit 188864
Requeued flit 188864
Received nack credit for flit 142313
Requeued flit 142313
11
7
Received nack credit for flit 129765
Requeued flit 129765
Received nack credit for flit 139395
Requeued flit 139395
1
Received nack credit for flit 125265
Requeued flit 125265
3
4
Received nack credit for flit 184942
Requeued flit 184942
3
1
2
Received nack credit for flit 138484
Requeued flit 138484
Received nack credit for flit 196256
Requeued flit 196256
1
Received nack credit for flit 174730
Requeued flit 174730
1
Received nack credit for flit 175669
Requeued flit 175669
Received nack credit for flit 169493
Requeued flit 169493
2
Received nack credit for flit 175813
Requeued flit 175813
Received nack credit for flit 195032
Requeued flit 195032
Received nack credit for flit 187675
Requeued flit 187675
3
2
Received nack credit for flit 151775
Requeued flit 151775
Received nack credit for flit 196181
Requeued flit 196181
7
Received nack credit for flit 150089
Requeued flit 150089
1
1
1
1
Received nack credit for flit 198276
Requeued flit 198276
Received nack credit for flit 198193
Requeued flit 198193
1
6
Received nack credit for flit 198229
Requeued flit 198229
1
Received nack credit for flit 198737
Requeued flit 198737
Received nack credit for flit 131085
Requeued flit 131085
Received nack credit for flit 196686
Requeued flit 196686
1
1
Received nack credit for flit 197900
Requeued flit 197900
Received nack credit for flit 197136
Requeued flit 197136
6
3
1
Received nack credit for flit 127757
Requeued flit 127757
Received nack credit for flit 162886
Requeued flit 162886
8
7
Received nack credit for flit 199912
Requeued flit 199912
1
3
Received nack credit for flit 155413
Requeued flit 155413
Received nack credit for flit 134972
Requeued flit 134972
Received nack credit for flit 144409
Requeued flit 144409
Received nack credit for flit 200269
Requeued flit 200269
1
2
Received nack credit for flit 200886
Requeued flit 200886
Received nack credit for flit 199131
Requeued flit 199131
2
1
3
4
2
2
2
Received nack credit for flit 200868
Requeued flit 200868
Received nack credit for flit 200608
Requeued flit 200608
Received nack credit for flit 151727
Requeued flit 151727
Received nack credit for flit 146844
Requeued flit 146844
Received nack credit for flit 201164
Requeued flit 201164
Received nack credit for flit 189008
Requeued flit 189008
1
Received nack credit for flit 201955
Requeued flit 201955
1
Received nack credit for flit 182952
Requeued flit 182952
3
3
Received nack credit for flit 157131
Requeued flit 157131
4
Received nack credit for flit 187333
Requeued flit 187333
Received nack credit for flit 201993
Requeued flit 201993
3
1
1
Received nack credit for flit 181537
Requeued flit 181537
1
1
Received nack credit for flit 186294
Requeued flit 186294
Received nack credit for flit 185809
Requeued flit 185809
Received nack credit for flit 202918
Requeued flit 202918
Received nack credit for flit 187130
Requeued flit 187130
1
1
4
8
Received nack credit for flit 183048
Requeued flit 183048
3
Received nack credit for flit 203993
Requeued flit 203993
2
5
1
Received nack credit for flit 165457
Requeued flit 165457
6
Received nack credit for flit 143856
Requeued flit 143856
1
Received nack credit for flit 170288
Requeued flit 170288
Received nack credit for flit 202265
Requeued flit 202265
Received nack credit for flit 146937
Requeued flit 146937
4
Received nack credit for flit 204350
Requeued flit 204350
Received nack credit for flit 192948
Requeued flit 192948
Received nack credit for flit 153171
Requeued flit 153171
Received nack credit for flit 143962
Requeued flit 143962
1
6
4
Received nack credit for flit 204958
Requeued flit 204958
Received nack credit for flit 141802
Requeued flit 141802
4
Received nack credit for flit 183518
Requeued flit 183518
Received nack credit for flit 178890
Requeued flit 178890
1
Received nack credit for flit 188002
Requeued flit 188002
1
Received nack credit for flit 203932
Requeued flit 203932
8
Received nack credit for flit 155232
Requeued flit 155232
3
Received nack credit for flit 172352
Requeued flit 172352
1
Received nack credit for flit 186154
Requeued flit 186154
2
2
Received nack credit for flit 206752
Requeued flit 206752
1
1
Received nack credit for flit 158040
Requeued flit 158040
Received nack credit for flit 186768
Requeued flit 186768
Received nack credit for flit 191510
Requeued flit 191510
1
Received nack credit for flit 207468
Requeued flit 207468
4
Received nack credit for flit 147351
Requeued flit 147351
3
6
Received nack credit for flit 163443
Requeued flit 163443
2
3
Received nack credit for flit 178993
Requeued flit 178993
1
Received nack credit for flit 196559
Requeued flit 196559
Received nack credit for flit 195112
Requeued flit 195112
Received nack credit for flit 209787
Requeued flit 209787
1
8
1
1
Received nack credit for flit 210024
Requeued flit 210024
1
Received nack credit for flit 178119
Requeued flit 178119
Received nack credit for flit 192546
Requeued flit 192546
Received nack credit for flit 191259
Requeued flit 191259
1
3
Received nack credit for flit 196676
Requeued flit 196676
Received nack credit for flit 189383
Requeued flit 189383
Received nack credit for flit 158278
Requeued flit 158278
4
1
1
2
Received nack credit for flit 165337
Requeued flit 165337
Received nack credit for flit 189160
Requeued flit 189160
Received nack credit for flit 208839
Requeued flit 208839
Received nack credit for flit 210794
Requeued flit 210794
5
Received nack credit for flit 141273
Requeued flit 141273
1
5
Received nack credit for flit 196305
Requeued flit 196305
Received nack credit for flit 182104
Requeued flit 182104
1
3
2
Received nack credit for flit 212420
Requeued flit 212420
Received nack credit for flit 196398
Requeued flit 196398
Received nack credit for flit 211663
Requeued flit 211663
1
1
Received nack credit for flit 212700
Requeued flit 212700
Received nack credit for flit 195772
Requeued flit 195772
1
Received nack credit for flit 197859
Requeued flit 197859
4
Received nack credit for flit 146820
Requeued flit 146820
8
1
Received nack credit for flit 135615
Requeued flit 135615
6
Received nack credit for flit 180225
Requeued flit 180225
Received nack credit for flit 214101
Requeued flit 214101
3
1
1
1
Received nack credit for flit 197176
Requeued flit 197176
1
Received nack credit for flit 188721
Requeued flit 188721
Received nack credit for flit 197296
Requeued flit 197296
1
Received nack credit for flit 196965
Requeued flit 196965
Received nack credit for flit 214022
Requeued flit 214022
Received nack credit for flit 210736
Requeued flit 210736
4
Received nack credit for flit 146626
Requeued flit 146626
6
6
7
1
Received nack credit for flit 153990
Requeued flit 153990
Received nack credit for flit 144832
Requeued flit 144832
Received nack credit for flit 190377
Requeued flit 190377
Received nack credit for flit 216335
Requeued flit 216335
1
Received nack credit for flit 216579
Requeued flit 216579
1
Received nack credit for flit 216808
Requeued flit 216808
1
2
Received nack credit for flit 216358
Requeued flit 216358
1
Received nack credit for flit 167788
Requeued flit 167788
1
1
Received nack credit for flit 215139
Requeued flit 215139
1
Received nack credit for flit 200069
Requeued flit 200069
2
Received nack credit for flit 215734
Requeued flit 215734
Received nack credit for flit 216260
Requeued flit 216260
1
1
Received nack credit for flit 197811
Requeued flit 197811
Received nack credit for flit 216785
Requeued flit 216785
Received nack credit for flit 204876
Requeued flit 204876
1
Received nack credit for flit 198942
Requeued flit 198942
1
4
1
Received nack credit for flit 189317
Requeued flit 189317
Received nack credit for flit 197804
Requeued flit 197804
Received nack credit for flit 218580
Requeued flit 218580
3
Received nack credit for flit 188452
Requeued flit 188452
1
1
2
Received nack credit for flit 198539
Requeued flit 198539
1
Received nack credit for flit 198574
Requeued flit 198574
1
Received nack credit for flit 218011
Requeued flit 218011
Received nack credit for flit 217257
Requeued flit 217257
Received nack credit for flit 219859
Requeued flit 219859
1
1
Received nack credit for flit 199445
Requeued flit 199445
7
1
Received nack credit for flit 196724
Requeued flit 196724
Received nack credit for flit 148917
Requeued flit 148917
Received nack credit for flit 220764
Requeued flit 220764
5
Received nack credit for flit 197798
Requeued flit 197798
5
Received nack credit for flit 180170
Requeued flit 180170
6
Received nack credit for flit 155643
Requeued flit 155643
2
1
2
2
Received nack credit for flit 213592
Requeued flit 213592
Received nack credit for flit 206354
Requeued flit 206354
Received nack credit for flit 222099
Requeued flit 222099
Received nack credit for flit 172550
Requeued flit 172550
7
5
Received nack credit for flit 153523
Requeued flit 153523
1
Received nack credit for flit 157901
Requeued flit 157901
Received nack credit for flit 222315
Requeued flit 222315
2
3
Received nack credit for flit 183666
Requeued flit 183666
6
4
Received nack credit for flit 178613
Requeued flit 178613
Received nack credit for flit 186638
Requeued flit 186638
1
Received nack credit for flit 176248
Requeued flit 176248
Received nack credit for flit 223654
Requeued flit 223654
2
1
Received nack credit for flit 222830
Requeued flit 222830
Received nack credit for flit 205092
Requeued flit 205092
3
2
3
Received nack credit for flit 179110
Requeued flit 179110
1
Received nack credit for flit 204604
Requeued flit 204604
8
Received nack credit for flit 181543
Requeued flit 181543
4
10
Received nack credit for flit 203404
Requeued flit 203404
3
Received nack credit for flit 161465
Requeued flit 161465
Received nack credit for flit 188549
Requeued flit 188549
Received nack credit for flit 149339
Requeued flit 149339
Received nack credit for flit 172814
Requeued flit 172814
4
1
Received nack credit for flit 204536
Requeued flit 204536
Received nack credit for flit 203854
Requeued flit 203854
2
1
Received nack credit for flit 223112
Requeued flit 223112
7
Received nack credit for flit 225905
Requeued flit 225905
Received nack credit for flit 160773
Requeued flit 160773
4
Received nack credit for flit 170753
Requeued flit 170753
1
1
Received nack credit for flit 226650
Requeued flit 226650
Received nack credit for flit 213787
Requeued flit 213787
1
1
Received nack credit for flit 225858
Requeued flit 225858
Received nack credit for flit 211276
Requeued flit 211276
2
Received nack credit for flit 226082
Requeued flit 226082
4
1
7
Received nack credit for flit 179677
Requeued flit 179677
Received nack credit for flit 212078
Requeued flit 212078
Received nack credit for flit 165038
Requeued flit 165038
1
1
Received nack credit for flit 228414
Requeued flit 228414
Received nack credit for flit 214860
Requeued flit 214860
2
Received nack credit for flit 226910
Requeued flit 226910
11
Received nack credit for flit 135216
Requeued flit 135216
1
3
Received nack credit for flit 229251
Requeued flit 229251
Received nack credit for flit 227817
Requeued flit 227817
1
7
Received nack credit for flit 208825
Requeued flit 208825
Received nack credit for flit 191262
Requeued flit 191262
1
3
1
1
Received nack credit for flit 228927
Requeued flit 228927
Received nack credit for flit 230398
Requeued flit 230398
Received nack credit for flit 229735
Requeued flit 229735
Received nack credit for flit 196206
Requeued flit 196206
1
Received nack credit for flit 218530
Requeued flit 218530
1
Received nack credit for flit 229756
Requeued flit 229756
2
5
1
Received nack credit for flit 210193
Requeued flit 210193
Received nack credit for flit 183392
Requeued flit 183392
Received nack credit for flit 231353
Requeued flit 231353
2
Received nack credit for flit 188589
Requeued flit 188589
5
3
Received nack credit for flit 206665
Requeued flit 206665
Received nack credit for flit 197538
Requeued flit 197538
1
1
Received nack credit for flit 232156
Requeued flit 232156
Received nack credit for flit 217982
Requeued flit 217982
5
2
2
Received nack credit for flit 186148
Requeued flit 186148
2
Received nack credit for flit 211734
Requeued flit 211734
Received nack credit for flit 200508
Requeued flit 200508
2
Received nack credit for flit 199591
Requeued flit 199591
Received nack credit for flit 186216
Requeued flit 186216
1
1
1
1
1
1
Received nack credit for flit 201191
Requeued flit 201191
Received nack credit for flit 205751
Requeued flit 205751
Received nack credit for flit 233919
Requeued flit 233919
Received nack credit for flit 212597
Requeued flit 212597
Received nack credit for flit 233984
Requeued flit 233984
Received nack credit for flit 233802
Requeued flit 233802
5
1
1
Received nack credit for flit 173996
Requeued flit 173996
4
Received nack credit for flit 234136
Requeued flit 234136
6
Received nack credit for flit 213565
Requeued flit 213565
Received nack credit for flit 163079
Requeued flit 163079
9
Received nack credit for flit 160693
Requeued flit 160693
3
Received nack credit for flit 146769
Requeued flit 146769
Received nack credit for flit 186650
Requeued flit 186650
1
Received nack credit for flit 214378
Requeued flit 214378
6
9
3
Received nack credit for flit 158736
Requeued flit 158736
Received nack credit for flit 142575
Requeued flit 142575
5
Received nack credit for flit 214464
Requeued flit 214464
Received nack credit for flit 160842
Requeued flit 160842
5
Received nack credit for flit 189651
Requeued flit 189651
4
3
Received nack credit for flit 210451
Requeued flit 210451
1
Received nack credit for flit 204750
Requeued flit 204750
1
Received nack credit for flit 223851
Requeued flit 223851
1
Received nack credit for flit 237329
Requeued flit 237329
8
Received nack credit for flit 237666
Requeued flit 237666
1
4
Received nack credit for flit 196435
Requeued flit 196435
6
Received nack credit for flit 211023
Requeued flit 211023
2
Received nack credit for flit 237493
Requeued flit 237493
Received nack credit for flit 185759
Requeued flit 185759
Received nack credit for flit 223892
Requeued flit 223892
2
Received nack credit for flit 209595
Requeued flit 209595
2
Received nack credit for flit 209024
Requeued flit 209024
2
3
Received nack credit for flit 183908
Requeued flit 183908
Received nack credit for flit 193274
Requeued flit 193274
1
Received nack credit for flit 240219
Requeued flit 240219
4
Received nack credit for flit 222355
Requeued flit 222355
1
2
8
Received nack credit for flit 240699
Requeued flit 240699
1
3
Received nack credit for flit 206503
Requeued flit 206503
Received nack credit for flit 222273
Requeued flit 222273
2
2
Received nack credit for flit 240493
Requeued flit 240493
2
Received nack credit for flit 186476
Requeued flit 186476
Received nack credit for flit 157611
Requeued flit 157611
Received nack credit for flit 194236
Requeued flit 194236
Received nack credit for flit 199335
Requeued flit 199335
4
Received nack credit for flit 221702
Requeued flit 221702
1
1
3
Received nack credit for flit 231897
Requeued flit 231897
1
1
Received nack credit for flit 227896
Requeued flit 227896
Received nack credit for flit 172721
Requeued flit 172721
2
Received nack credit for flit 221423
Requeued flit 221423
Received nack credit for flit 242433
Requeued flit 242433
Received nack credit for flit 185109
Requeued flit 185109
5
Received nack credit for flit 220360
Requeued flit 220360
1
Received nack credit for flit 228518
Requeued flit 228518
3
1
1
Received nack credit for flit 241927
Requeued flit 241927
1
Received nack credit for flit 231255
Requeued flit 231255
2
Received nack credit for flit 222566
Requeued flit 222566
Received nack credit for flit 216151
Requeued flit 216151
Received nack credit for flit 217481
Requeued flit 217481
7
Received nack credit for flit 202236
Requeued flit 202236
3
Received nack credit for flit 216761
Requeued flit 216761
1
6
3
2
Received nack credit for flit 232204
Requeued flit 232204
Received nack credit for flit 194967
Requeued flit 194967
Received nack credit for flit 180440
Requeued flit 180440
Received nack credit for flit 232248
Requeued flit 232248
1
Received nack credit for flit 224694
Requeued flit 224694
1
Received nack credit for flit 245722
Requeued flit 245722
1
3
Received nack credit for flit 224946
Requeued flit 224946
Received nack credit for flit 244342
Requeued flit 244342
2
Received nack credit for flit 246153
Requeued flit 246153
9
4
Received nack credit for flit 155303
Requeued flit 155303
Received nack credit for flit 174735
Requeued flit 174735
2
Received nack credit for flit 200012
Requeued flit 200012
1
Received nack credit for flit 227051
Requeued flit 227051
2
Received nack credit for flit 201481
Requeued flit 201481
1
[...]
Received nack credit for flit 244134
Requeued flit 244134
Received nack credit for flit 333885
Requeued flit 333885
Received nack credit for flit 315757
Requeued flit 315757
3
3
3
7
Received nack credit for flit 241617
Requeued flit 241617
Received nack credit for flit 291705
Requeued flit 291705
Received nack credit for flit 223636
Requeued flit 223636
Received nack credit for flit 317443
Requeued flit 317443
3
3
1
Received nack credit for flit 240701
Requeued flit 240701
Received nack credit for flit 333678
Requeued flit 333678
5
Received nack credit for flit 334339
Requeued flit 334339
Received nack credit for flit 240347
Requeued flit 240347
1
6
1
Received nack credit for flit 331224
Requeued flit 331224
3
Received nack credit for flit 286054
Requeued flit 286054
Received nack credit for flit 318701
Requeued flit 318701
6
Received nack credit for flit 331164
Requeued flit 331164
2
Received nack credit for flit 228355
Requeued flit 228355
3
Received nack credit for flit 335427
Requeued flit 335427
2
1
6
Received nack credit for flit 297879
Requeued flit 297879
Received nack credit for flit 318319
Requeued flit 318319
Received nack credit for flit 290732
Requeued flit 290732
Received nack credit for flit 240547
Requeued flit 240547
3
Received nack credit for flit 320797
Requeued flit 320797
1
2
Received nack credit for flit 279388
Requeued flit 279388
Received nack credit for flit 336054
Requeued flit 336054
5
3
Received nack credit for flit 226540
Requeued flit 226540
Received nack credit for flit 299714
Requeued flit 299714
4
1
Received nack credit for flit 230718
Requeued flit 230718
5
2
Received nack credit for flit 337325
Requeued flit 337325
Received nack credit for flit 301305
Requeued flit 301305
Received nack credit for flit 269864
Requeued flit 269864
3
Received nack credit for flit 336818
Requeued flit 336818
3
Received nack credit for flit 322381
Requeued flit 322381
1
1
1
Received nack credit for flit 338562
Requeued flit 338562
Received nack credit for flit 338485
Requeued flit 338485
Received nack credit for flit 335405
Requeued flit 335405
1
Received nack credit for flit 338549
Requeued flit 338549
5
Received nack credit for flit 225494
Requeued flit 225494
2
1
Received nack credit for flit 322994
Requeued flit 322994
Received nack credit for flit 297621
Requeued flit 297621
1
Received nack credit for flit 339149
Requeued flit 339149
1
Received nack credit for flit 339711
Requeued flit 339711
1
1
4
Received nack credit for flit 294429
Requeued flit 294429
Received nack credit for flit 324121
Requeued flit 324121
Received nack credit for flit 220458
Requeued flit 220458
5
1
Received nack credit for flit 225498
Requeued flit 225498
6
Received nack credit for flit 335339
Requeued flit 335339
Received nack credit for flit 278549
Requeued flit 278549
2
Received nack credit for flit 257688
Requeued flit 257688
1
1
Received nack credit for flit 289447
Requeued flit 289447
7
Received nack credit for flit 287840
Requeued flit 287840
3
3
Received nack credit for flit 226035
Requeued flit 226035
2
Received nack credit for flit 324612
Requeued flit 324612
Received nack credit for flit 340709
Requeued flit 340709
Received nack credit for flit 255413
Requeued flit 255413
2
Received nack credit for flit 324929
Requeued flit 324929
1
Received nack credit for flit 325902
Requeued flit 325902
3
1
Received nack credit for flit 254244
Requeued flit 254244
1
Received nack credit for flit 342097
Requeued flit 342097
4
4
1
Received nack credit for flit 342855
Requeued flit 342855
Received nack credit for flit 281764
Requeued flit 281764
Received nack credit for flit 340861
Requeued flit 340861
Received nack credit for flit 338942
Requeued flit 338942
5
Received nack credit for flit 305723
Requeued flit 305723
4
2
Received nack credit for flit 231878
Requeued flit 231878
Received nack credit for flit 326220
Requeued flit 326220
8
2
Received nack credit for flit 299084
Requeued flit 299084
Received nack credit for flit 302434
Requeued flit 302434
1
Received nack credit for flit 338685
Requeued flit 338685
2
Received nack credit for flit 342490
Requeued flit 342490
1
Received nack credit for flit 298467
Requeued flit 298467
5
2
Received nack credit for flit 328377
Requeued flit 328377
Received nack credit for flit 344598
Requeued flit 344598
2
2
Received nack credit for flit 272134
Requeued flit 272134
1
Received nack credit for flit 274048
Requeued flit 274048
3
Received nack credit for flit 297079
Requeued flit 297079
Received nack credit for flit 345374
Requeued flit 345374
1
6
Received nack credit for flit 345147
Requeued flit 345147
Received nack credit for flit 318935
Requeued flit 318935
8
3
Received nack credit for flit 316044
Requeued flit 316044
Received nack credit for flit 232668
Requeued flit 232668
3
Received nack credit for flit 265664
Requeued flit 265664
3
Received nack credit for flit 330470
Requeued flit 330470
2
Received nack credit for flit 261085
Requeued flit 261085
3
4
4
Received nack credit for flit 330889
Requeued flit 330889
Received nack credit for flit 342308
Requeued flit 342308
Received nack credit for flit 346735
Requeued flit 346735
8
3
Received nack credit for flit 312795
Requeued flit 312795
7
Received nack credit for flit 347688
Requeued flit 347688
Received nack credit for flit 296152
Requeued flit 296152
2
1
Received nack credit for flit 307976
Requeued flit 307976
Received nack credit for flit 346128
Requeued flit 346128
10
Received nack credit for flit 228167
Requeued flit 228167
1
2
1
2
Received nack credit for flit 348391
Requeued flit 348391
Received nack credit for flit 310287
Requeued flit 310287
Received nack credit for flit 346655
Requeued flit 346655
Received nack credit for flit 349064
Requeued flit 349064
11
2
8
Received nack credit for flit 214062
Requeued flit 214062
Received nack credit for flit 332828
Requeued flit 332828
Received nack credit for flit 236221
Requeued flit 236221
1
Received nack credit for flit 349053
Requeued flit 349053
8
Received nack credit for flit 293351
Requeued flit 293351
6
2
2
Received nack credit for flit 227454
Requeued flit 227454
8
Received nack credit for flit 348643
Requeued flit 348643
1
2
Received nack credit for flit 348703
Requeued flit 348703
1
Received nack credit for flit 309909
Requeued flit 309909
Received nack credit for flit 348824
Requeued flit 348824
Received nack credit for flit 316915
Requeued flit 316915
Received nack credit for flit 349537
Requeued flit 349537
9
2
2
Received nack credit for flit 273880
Requeued flit 273880
3
Received nack credit for flit 334725
Requeued flit 334725
Received nack credit for flit 351434
Requeued flit 351434
Received nack credit for flit 351906
Requeued flit 351906
4
7
Received nack credit for flit 232961
Requeued flit 232961
Received nack credit for flit 286453
Requeued flit 286453
5
2
Received nack credit for flit 248574
Requeued flit 248574
2
Received nack credit for flit 263240
Requeued flit 263240
Received nack credit for flit 352581
Requeued flit 352581
6
Received nack credit for flit 316770
Requeued flit 316770
2
2
7
Received nack credit for flit 313797
Requeued flit 313797
Received nack credit for flit 276280
Requeued flit 276280
Received nack credit for flit 234354
Requeued flit 234354
7
1
9
1
Received nack credit for flit 337475
Requeued flit 337475
Received nack credit for flit 338449
Requeued flit 338449
Received nack credit for flit 223357
Requeued flit 223357
2
Received nack credit for flit 351462
Requeued flit 351462
5
Received nack credit for flit 275252
Requeued flit 275252
Received nack credit for flit 246084
Requeued flit 246084
5
8
Received nack credit for flit 230894
Requeued flit 230894
1
Received nack credit for flit 319697
Requeued flit 319697
1
Received nack credit for flit 353099
Requeued flit 353099
Received nack credit for flit 339373
Requeued flit 339373
3
1
Received nack credit for flit 307337
Requeued flit 307337
Received nack credit for flit 339321
Requeued flit 339321
8
1
Received nack credit for flit 231390
Requeued flit 231390
Received nack credit for flit 354459
Requeued flit 354459
4
1
1
Received nack credit for flit 340261
Requeued flit 340261
Received nack credit for flit 340646
Requeued flit 340646
Received nack credit for flit 356157
Requeued flit 356157
1
Received nack credit for flit 340939
Requeued flit 340939
10
Received nack credit for flit 215917
Requeued flit 215917
1
5
Received nack credit for flit 222802
Requeued flit 222802
1
Received nack credit for flit 307564
Requeued flit 307564
Received nack credit for flit 356720
Requeued flit 356720
7
4
Received nack credit for flit 238630
Requeued flit 238630
Received nack credit for flit 321216
Requeued flit 321216
7
5
3
Received nack credit for flit 217896
Requeued flit 217896
Received nack credit for flit 243784
Requeued flit 243784
Received nack credit for flit 236925
Requeued flit 236925
1
Received nack credit for flit 357992
Requeued flit 357992
8
3
Received nack credit for flit 234462
Requeued flit 234462
3
3
1
Received nack credit for flit 263508
Requeued flit 263508
Received nack credit for flit 358903
Requeued flit 358903
Received nack credit for flit 357374
Requeued flit 357374
1
Received nack credit for flit 311715
Requeued flit 311715
1
1
Received nack credit for flit 310093
Requeued flit 310093
Received nack credit for flit 312169
Requeued flit 312169
5
Received nack credit for flit 280259
Requeued flit 280259
3
5
4
Received nack credit for flit 320451
Requeued flit 320451
Received nack credit for flit 243304
Requeued flit 243304
3
Received nack credit for flit 343960
Requeued flit 343960
Received nack credit for flit 267361
Requeued flit 267361
1
4
Received nack credit for flit 353355
Requeued flit 353355
Received nack credit for flit 344631
Requeued flit 344631
1
Received nack credit for flit 356667
Requeued flit 356667
3
2
3
Received nack credit for flit 257702
Requeued flit 257702
1
4
Received nack credit for flit 324514
Requeued flit 324514
Received nack credit for flit 345196
Requeued flit 345196
Received nack credit for flit 360952
Requeued flit 360952
Received nack credit for flit 334760
Requeued flit 334760
6
Received nack credit for flit 246650
Requeued flit 246650
5
3
5
Received nack credit for flit 316059
Requeued flit 316059
Received nack credit for flit 346093
Requeued flit 346093
1
Received nack credit for flit 273026
Requeued flit 273026
Received nack credit for flit 360881
Requeued flit 360881
1
Received nack credit for flit 362103
Requeued flit 362103
4
4
Received nack credit for flit 238621
Requeued flit 238621
Received nack credit for flit 238836
Requeued flit 238836
1
Received nack credit for flit 363084
Requeued flit 363084
3
Received nack credit for flit 321204
Requeued flit 321204
6
4
Received nack credit for flit 243675
Requeued flit 243675
Received nack credit for flit 364404
Requeued flit 364404
4
Received nack credit for flit 255154
Requeued flit 255154
2
2
4
Received nack credit for flit 319598
Requeued flit 319598
Received nack credit for flit 283282
Requeued flit 283282
6
Received nack credit for flit 345877
Requeued flit 345877
Received nack credit for flit 245468
Requeued flit 245468
1
2
Received nack credit for flit 366125
Requeued flit 366125
Received nack credit for flit 366187
Requeued flit 366187
6
3
Received nack credit for flit 269519
Requeued flit 269519
Received nack credit for flit 241970
Requeued flit 241970
7
Received nack credit for flit 241957
Requeued flit 241957
1
5
Received nack credit for flit 351570
Requeued flit 351570
Received nack credit for flit 351051
Requeued flit 351051
1
Received nack credit for flit 367767
Requeued flit 367767
1
7
Received nack credit for flit 368345
Requeued flit 368345
4
Received nack credit for flit 239811
Requeued flit 239811
3
Received nack credit for flit 328981
Requeued flit 328981
Received nack credit for flit 351818
Requeued flit 351818
2
Received nack credit for flit 357268
Requeued flit 357268
3
2
Received nack credit for flit 367116
Requeued flit 367116
Received nack credit for flit 353173
Requeued flit 353173
1
1
1
Received nack credit for flit 363637
Requeued flit 363637
2
Received nack credit for flit 369174
Requeued flit 369174
Received nack credit for flit 364795
Requeued flit 364795
Received nack credit for flit 353469
Requeued flit 353469
5
Received nack credit for flit 242743
Requeued flit 242743
2
1
1
3
Received nack credit for flit 354065
Requeued flit 354065
Received nack credit for flit 354012
Requeued flit 354012
Received nack credit for flit 247680
Requeued flit 247680
4
Received nack credit for flit 320795
Requeued flit 320795
Received nack credit for flit 334839
Requeued flit 334839
2
3
Received nack credit for flit 370434
Requeued flit 370434
Received nack credit for flit 335681
Requeued flit 335681
2
5
3
Received nack credit for flit 293685
Requeued flit 293685
3
Received nack credit for flit 245275
Requeued flit 245275
Received nack credit for flit 278208
Requeued flit 278208
Received nack credit for flit 367410
Requeued flit 367410
4
Received nack credit for flit 370565
Requeued flit 370565
2
6
2
Received nack credit for flit 355424
Requeued flit 355424
Received nack credit for flit 277972
Requeued flit 277972
5
6
1
11
Received nack credit for flit 339669
Requeued flit 339669
Received nack credit for flit 371898
Requeued flit 371898
Received nack credit for flit 317212
Requeued flit 317212
Received nack credit for flit 356297
Requeued flit 356297
Received nack credit for flit 307198
Requeued flit 307198
5
4
7
Received nack credit for flit 248000
Requeued flit 248000
Received nack credit for flit 354310
Requeued flit 354310
Received nack credit for flit 339976
Requeued flit 339976
1
4
2
Received nack credit for flit 320082
Requeued flit 320082
Received nack credit for flit 356938
Requeued flit 356938
Received nack credit for flit 357378
Requeued flit 357378
1
Received nack credit for flit 327494
Requeued flit 327494
1
7
1
Received nack credit for flit 327486
Requeued flit 327486
3
Received nack credit for flit 374108
Requeued flit 374108
Received nack credit for flit 338906
Requeued flit 338906
Received nack credit for flit 337177
Requeued flit 337177
4
1
2
4
3
Received nack credit for flit 328055
Requeued flit 328055
11
3
4
Received nack credit for flit 326025
Requeued flit 326025
Received nack credit for flit 326380
Requeued flit 326380
Received nack credit for flit 337828
Requeued flit 337828
1
Received nack credit for flit 358413
Requeued flit 358413
Received nack credit for flit 234115
Requeued flit 234115
1
3
Received nack credit for flit 253306
Requeued flit 253306
2
Received nack credit for flit 264874
Requeued flit 264874
Received nack credit for flit 372870
Requeued flit 372870
Received nack credit for flit 359002
Requeued flit 359002
Received nack credit for flit 337695
Requeued flit 337695
Received nack credit for flit 358413
Requeued flit 358413
1
5
Received nack credit for flit 370745
Requeued flit 370745
2
2
Received nack credit for flit 358628
Requeued flit 358628
Received nack credit for flit 359116
Requeued flit 359116
Received nack credit for flit 331031
Requeued flit 331031
2
Received nack credit for flit 340272
Requeued flit 340272
3
Received nack credit for flit 369049
Requeued flit 369049
2
1
Received nack credit for flit 376655
Requeued flit 376655
Received nack credit for flit 376300
Requeued flit 376300
1
Received nack credit for flit 376946
Requeued flit 376946
4
Received nack credit for flit 254992
Requeued flit 254992
2
Received nack credit for flit 377197
Requeued flit 377197
2
2
2
Received nack credit for flit 371247
Requeued flit 371247
Received nack credit for flit 300871
Requeued flit 300871
Received nack credit for flit 318291
Requeued flit 318291
4
1
2
1
Received nack credit for flit 265661
Requeued flit 265661
Received nack credit for flit 338123
Requeued flit 338123
Received nack credit for flit 330393
Requeued flit 330393
1
Received nack credit for flit 374642
Requeued flit 374642
1
Received nack credit for flit 373704
Requeued flit 373704
6
Received nack credit for flit 378202
Requeued flit 378202
Received nack credit for flit 257836
Requeued flit 257836
4
3
Received nack credit for flit 327986
Requeued flit 327986
Received nack credit for flit 362043
Requeued flit 362043
2
2
4
Received nack credit for flit 294228
Requeued flit 294228
Received nack credit for flit 363021
Requeued flit 363021
2
3
3
Received nack credit for flit 362630
Requeued flit 362630
Received nack credit for flit 379128
Requeued flit 379128
Received nack credit for flit 372924
Requeued flit 372924
Received nack credit for flit 361022
Requeued flit 361022
4
1
Received nack credit for flit 379351
Requeued flit 379351
4
1
Received nack credit for flit 379884
Requeued flit 379884
Received nack credit for flit 333301
Requeued flit 333301
1
9
Received nack credit for flit 378494
Requeued flit 378494
Received nack credit for flit 242117
Requeued flit 242117
Received nack credit for flit 379377
Requeued flit 379377
2
5
Received nack credit for flit 343409
Requeued flit 343409
Received nack credit for flit 381106
Requeued flit 381106
7
9
2
Received nack credit for flit 257955
Requeued flit 257955
Received nack credit for flit 257319
Requeued flit 257319
1
Received nack credit for flit 341280
Requeued flit 341280
4
Received nack credit for flit 359184
Requeued flit 359184
Received nack credit for flit 283638
Requeued flit 283638
1
1
2
Received nack credit for flit 337373
Requeued flit 337373
2
Received nack credit for flit 336128
Requeued flit 336128
Received nack credit for flit 343269
Requeued flit 343269
Received nack credit for flit 366323
Requeued flit 366323
6
6
3
Received nack credit for flit 314379
Requeued flit 314379
7
Received nack credit for flit 261347
Requeued flit 261347
1
Received nack credit for flit 366119
Requeued flit 366119
3
Received nack credit for flit 288582
Requeued flit 288582
4
Received nack credit for flit 383029
Requeued flit 383029
Received nack credit for flit 366845
Requeued flit 366845
Received nack credit for flit 382081
Requeued flit 382081
1
1
Received nack credit for flit 378204
Requeued flit 378204
3
3
Received nack credit for flit 336266
Requeued flit 336266
Received nack credit for flit 366954
Requeued flit 366954
Received nack credit for flit 265329
Requeued flit 265329
4
1
7
Received nack credit for flit 367272
Requeued flit 367272
Received nack credit for flit 383692
Requeued flit 383692
Received nack credit for flit 262937
Requeued flit 262937
7
1
1
Received nack credit for flit 256987
Requeued flit 256987
Received nack credit for flit 380428
Requeued flit 380428
Received nack credit for flit 384452
Requeued flit 384452
1
Received nack credit for flit 340182
Requeued flit 340182
1
1
Received nack credit for flit 385420
Requeued flit 385420
2
Received nack credit for flit 369342
Requeued flit 369342
4
Received nack credit for flit 347767
Requeued flit 347767
4
Received nack credit for flit 377320
Requeued flit 377320
Class 0:
Packet latency average = 885.718
	minimum = 5
	maximum = 4529
Network latency average = 878.805
	minimum = 5
	maximum = 4529
Slowest packet = 217042
Flit latency average = 878.805
	minimum = 5
	maximum = 4529
Slowest flit = 217042
Fragmentation average = 0
	minimum = 0
	maximum = 0
Injected packet rate average = 0.603241
	minimum = 0.5163 (at node 46)
	maximum = 0.6593 (at node 43)
Accepted packet rate average = 0.509577
	minimum = 0.4924 (at node 44)
	maximum = 0.5238 (at node 56)
Injected flit rate average = 0.603241
	minimum = 0.5163 (at node 46)
	maximum = 0.6593 (at node 43)
Accepted flit rate average= 0.509577
	minimum = 0.4924 (at node 44)
	maximum = 0.5238 (at node 56)
Injected packet length average = 1
Accepted packet length average = 1
Total in-flight flits = 59969 (0 measured)
latency change    = 1
throughput change = 1
Average latency for class 0 exceeded 500 cycles. Aborting simulation.
Too many sample periods needed to converge
Simulation unstable, ending ...
Total run time 52.8269
