BEGIN Configuration File: examples/ecc_mesh88_config_1_0.950_packet_3
// $Id$

// Copyright (c) 2007-2015, Trustees of The Leland Stanford Junior University
// All rights reserved.
//
// Redistribution and use in source and binary forms, with or without
// modification, are permitted provided that the following conditions are met:
//
// Redistributions of source code must retain the above copyright notice, this
// list of conditions and the following disclaimer.
// Redistributions in binary form must reproduce the above copyright notice,
// this list of conditions and the following disclaimer in the documentation
// and/or other materials provided with the distribution.
//
// THIS SOFTWARE IS PROVIDED BY THE COPYRIGHT HOLDERS AND CONTRIBUTORS "AS IS"
// AND ANY EXPRESS OR IMPLIED WARRANTIES, INCLUDING, BUT NOT LIMITED TO, THE
// IMPLIED WARRANTIES OF MERCHANTABILITY AND FITNESS FOR A PARTICULAR PURPOSE
// ARE DISCLAIMED. IN NO EVENT SHALL THE COPYRIGHT OWNER OR CONTRIBUTORS BE
// LIABLE FOR ANY DIRECT, INDIRECT, INCIDENTAL, SPECIAL, EXEMPLARY, OR
// CONSEQUENTIAL DAMAGES (INCLUDING, BUT NOT LIMITED TO, PROCUREMENT OF
// SUBSTITUTE GOODS OR SERVICES; LOSS OF USE, DATA, OR PROFITS; OR BUSINESS
// INTERRUPTION) HOWEVER CAUSED AND ON ANY THEORY OF LIABILITY, WHETHER IN
// CONTRACT, STRICT LIABILITY, OR TORT (INCLUDING NEGLIGENCE OR OTHERWISE)
// ARISING IN ANY WAY OUT OF THE USE OF THIS SOFTWARE, EVEN IF ADVISED OF THE
// POSSIBILITY OF SUCH DAMAGE.

// Dragonfly
//




vc_buf_size = 256;


wait_for_tail_credit = 0;

//
// Router architecture
//
vc_allocator = separable_input_first; 
sw_allocator = separable_input_first;
alloc_iters  = 1;

credit_delay   = 2;
routing_delay  = 0;
vc_alloc_delay = 1;
sw_alloc_delay = 1;
st_final_delay = 1;

input_speedup     = 1;
output_speedup    = 1;
internal_speedup  = 2.0;


warmup_periods = 3;
sim_count          = 1;

sample_period  = 10000;  


routing_function = dor;
num_vcs     = 2;

priority = none;
traffic       = uniform; 

injection_rate = 0.95;
packet_size = 1;
injection_rate_uses_flits = 1;

topology = mesh;

k  = 8;
n  = 2;

fer = 3;
ecc = link;

watch_out=-;
//watch_file = watch.txt;

ecc = packet;

stats_out = examples/ecc_mesh88_config_1_0.950_packet_3.m;

END Configuration File: examples/ecc_mesh88_config_1_0.950_packet_3
Additional hops: 1
Set signal latency stall time: 2
Reenqueueing errored packet 25 at time 8
Additional hops: 10
Set signal latency stall time: 18
Additional hops: 16
Set signal latency stall time: 12
Additional hops: 24
Set signal latency stall time: 16
Additional hops: 34
Set signal latency stall time: 20
Additional hops: 39
Set signal latency stall time: 10
Additional hops: 42
Set signal latency stall time: 6
Reenqueueing errored packet 504 at time 45
Reenqueueing errored packet 189 at time 49
Reenqueueing errored packet 17 at time 49
Reenqueueing errored packet 1910 at time 50
Reenqueueing errored packet 1312 at time 50
Additional hops: 46
Set signal latency stall time: 8
Additional hops: 51
Set signal latency stall time: 10
Reenqueueing errored packet 186 at time 59
Additional hops: 55
Set signal latency stall time: 8
Reenqueueing errored packet 1603 at time 61
Reenqueueing errored packet 1002 at time 66
Additional hops: 58
Set signal latency stall time: 6
Reenqueueing errored packet 2215 at time 68
Additional hops: 65
Set signal latency stall time: 14
Reenqueueing errored packet 2840 at time 74
Reenqueueing errored packet 930 at time 84
Additional hops: 72
Set signal latency stall time: 14
Additional hops: 75
Set signal latency stall time: 6
Additional hops: 84
Set signal latency stall time: 18
Reenqueueing errored packet 3677 at time 100
Additional hops: 90
Set signal latency stall time: 12
Reenqueueing errored packet 2723 at time 104
Additional hops: 96
Set signal latency stall time: 12
Reenqueueing errored packet 1781 at time 113
Reenqueueing errored packet 2601 at time 116
Additional hops: 102
Set signal latency stall time: 12
Additional hops: 107
Set signal latency stall time: 10
Additional hops: 116
Set signal latency stall time: 18
Reenqueueing errored packet 3674 at time 122
Additional hops: 130
Set signal latency stall time: 28
Reenqueueing errored packet 4673 at time 128
Additional hops: 134
Set signal latency stall time: 8
Reenqueueing errored packet 2527 at time 129
Additional hops: 137
Set signal latency stall time: 6
Additional hops: 142
Set signal latency stall time: 10
Reenqueueing errored packet 7221 at time 136
Reenqueueing errored packet 5106 at time 137
Reenqueueing errored packet 1982 at time 137
Reenqueueing errored packet 5219 at time 143
Additional hops: 148
Set signal latency stall time: 12
Additional hops: 153
Set signal latency stall time: 10
Additional hops: 154
Set signal latency stall time: 2
Additional hops: 168
Set signal latency stall time: 28
Reenqueueing errored packet 921 at time 152
Reenqueueing errored packet 8878 at time 153
Reenqueueing errored packet 4073 at time 156
Additional hops: 179
Set signal latency stall time: 22
Additional hops: 181
Set signal latency stall time: 4
Reenqueueing errored packet 2544 at time 159
Reenqueueing errored packet 8596 at time 162
Additional hops: 188
Set signal latency stall time: 14
Additional hops: 191
Set signal latency stall time: 6
Reenqueueing errored packet 8598 at time 178
Reenqueueing errored packet 4883 at time 179
Additional hops: 195
Set signal latency stall time: 8
Reenqueueing errored packet 1604 at time 180
Reenqueueing errored packet 2925 at time 184
Reenqueueing errored packet 7988 at time 188
Additional hops: 202
Set signal latency stall time: 14
Additional hops: 215
Set signal latency stall time: 26
Additional hops: 226
Set signal latency stall time: 22
Additional hops: 233
Set signal latency stall time: 14
Reenqueueing errored packet 5443 at time 216
Reenqueueing errored packet 4551 at time 229
Additional hops: 239
Set signal latency stall time: 12
Reenqueueing errored packet 2144 at time 232
Reenqueueing errored packet 2930 at time 235
Additional hops: 245
Set signal latency stall time: 12
Additional hops: 254
Set signal latency stall time: 18
Reenqueueing errored packet 7778 at time 243
Additional hops: 260
Set signal latency stall time: 12
Additional hops: 267
Set signal latency stall time: 14
Reenqueueing errored packet 6356 at time 253
Additional hops: 277
Set signal latency stall time: 20
Additional hops: 284
Set signal latency stall time: 14
Reenqueueing errored packet 5685 at time 261
Reenqueueing errored packet 8473 at time 264
Additional hops: 289
Set signal latency stall time: 10
Reenqueueing errored packet 6907 at time 267
Additional hops: 297
Set signal latency stall time: 16
Reenqueueing errored packet 6852 at time 275
Additional hops: 304
Set signal latency stall time: 14
Reenqueueing errored packet 12835 at time 277
Reenqueueing errored packet 2813 at time 279
Additional hops: 309
Set signal latency stall time: 10
Additional hops: 315
Set signal latency stall time: 12
Additional hops: 318
Set signal latency stall time: 6
Reenqueueing errored packet 9551 at time 289
Reenqueueing errored packet 8446 at time 290
Reenqueueing errored packet 14733 at time 291
Reenqueueing errored packet 8914 at time 293
Additional hops: 326
Set signal latency stall time: 16
Reenqueueing errored packet 9167 at time 296
Additional hops: 334
Set signal latency stall time: 16
Additional hops: 344
Set signal latency stall time: 20
Additional hops: 351
Set signal latency stall time: 14
Reenqueueing errored packet 8682 at time 310
Additional hops: 358
Set signal latency stall time: 14
Additional hops: 364
Set signal latency stall time: 12
Additional hops: 369
Set signal latency stall time: 10
Reenqueueing errored packet 5502 at time 320
Reenqueueing errored packet 11499 at time 321
Additional hops: 374
Set signal latency stall time: 10
Reenqueueing errored packet 6368 at time 326
Reenqueueing errored packet 5407 at time 326
Additional hops: 379
Set signal latency stall time: 10
Reenqueueing errored packet 11912 at time 327
Reenqueueing errored packet 9433 at time 327
Additional hops: 385
Set signal latency stall time: 12
Reenqueueing errored packet 14697 at time 333
Reenqueueing errored packet 8806 at time 337
Additional hops: 395
Set signal latency stall time: 20
Reenqueueing errored packet 6181 at time 343
Additional hops: 403
Set signal latency stall time: 16
Additional hops: 407
Set signal latency stall time: 8
Reenqueueing errored packet 4348 at time 362
Reenqueueing errored packet 14898 at time 366
Additional hops: 411
Set signal latency stall time: 8
Reenqueueing errored packet 10917 at time 369
Additional hops: 421
Set signal latency stall time: 20
Additional hops: 426
Set signal latency stall time: 10
Reenqueueing errored packet 20161 at time 375
Reenqueueing errored packet 18387 at time 381
Additional hops: 433
Set signal latency stall time: 14
Additional hops: 441
Set signal latency stall time: 16
Reenqueueing errored packet 12381 at time 390
Additional hops: 446
Set signal latency stall time: 10
Additional hops: 451
Set signal latency stall time: 10
Reenqueueing errored packet 14592 at time 398
Reenqueueing errored packet 14189 at time 401
Reenqueueing errored packet 14252 at time 403
Additional hops: 454
Set signal latency stall time: 6
Reenqueueing errored packet 11289 at time 405
Additional hops: 461
Set signal latency stall time: 14
Additional hops: 464
Set signal latency stall time: 6
Reenqueueing errored packet 23948 at time 411
Reenqueueing errored packet 18525 at time 413
Additional hops: 470
Set signal latency stall time: 12
Reenqueueing errored packet 14489 at time 421
Additional hops: 474
Set signal latency stall time: 8
Additional hops: 482
Set signal latency stall time: 16
Additional hops: 489
Set signal latency stall time: 14
Reenqueueing errored packet 11419 at time 428
Additional hops: 496
Set signal latency stall time: 14
Additional hops: 501
Set signal latency stall time: 10
Additional hops: 509
Set signal latency stall time: 16
Reenqueueing errored packet 17335 at time 434
Additional hops: 519
Set signal latency stall time: 20
Reenqueueing errored packet 9315 at time 442
Reenqueueing errored packet 12266 at time 443
Additional hops: 525
Set signal latency stall time: 12
Reenqueueing errored packet 23199 at time 444
Reenqueueing errored packet 15603 at time 446
Additional hops: 532
Set signal latency stall time: 14
Reenqueueing errored packet 19065 at time 450
Reenqueueing errored packet 24720 at time 456
Reenqueueing errored packet 7055 at time 458
Reenqueueing errored packet 9038 at time 461
Additional hops: 540
Set signal latency stall time: 16
Additional hops: 543
Set signal latency stall time: 6
Additional hops: 550
Set signal latency stall time: 14
Additional hops: 559
Set signal latency stall time: 18
Reenqueueing errored packet 15023 at time 474
Additional hops: 563
Set signal latency stall time: 8
Additional hops: 571
Set signal latency stall time: 16
Reenqueueing errored packet 12081 at time 483
Additional hops: 582
Set signal latency stall time: 22
Reenqueueing errored packet 24753 at time 486
Reenqueueing errored packet 16649 at time 487
Additional hops: 589
Set signal latency stall time: 14
Additional hops: 592
Set signal latency stall time: 6
Reenqueueing errored packet 11481 at time 491
Additional hops: 603
Set signal latency stall time: 22
Reenqueueing errored packet 24179 at time 494
Additional hops: 607
Set signal latency stall time: 8
Reenqueueing errored packet 15487 at time 498
Additional hops: 611
Set signal latency stall time: 8
Additional hops: 623
Set signal latency stall time: 24
Reenqueueing errored packet 19609 at time 502
Additional hops: 627
Set signal latency stall time: 8
Reenqueueing errored packet 28427 at time 504
Reenqueueing errored packet 7108 at time 506
Additional hops: 638
Set signal latency stall time: 22
Reenqueueing errored packet 23156 at time 509
Reenqueueing errored packet 13829 at time 511
Additional hops: 641
Set signal latency stall time: 6
Reenqueueing errored packet 9262 at time 514
Reenqueueing errored packet 20641 at time 519
Additional hops: 651
Set signal latency stall time: 20
Additional hops: 657
Set signal latency stall time: 12
Reenqueueing errored packet 4573 at time 526
Additional hops: 660
Set signal latency stall time: 6
Reenqueueing errored packet 16471 at time 531
Additional hops: 664
Set signal latency stall time: 8
Additional hops: 675
Set signal latency stall time: 22
Reenqueueing errored packet 25050 at time 536
Reenqueueing errored packet 24216 at time 537
Additional hops: 683
Set signal latency stall time: 16
Reenqueueing errored packet 22695 at time 541
Additional hops: 691
Set signal latency stall time: 16
Reenqueueing errored packet 9067 at time 542
Additional hops: 695
Set signal latency stall time: 8
Additional hops: 702
Set signal latency stall time: 14
Reenqueueing errored packet 24678 at time 551
Additional hops: 712
Set signal latency stall time: 20
Reenqueueing errored packet 13082 at time 556
Reenqueueing errored packet 9109 at time 556
Reenqueueing errored packet 9344 at time 558
Additional hops: 715
Set signal latency stall time: 6
Additional hops: 721
Set signal latency stall time: 12
Reenqueueing errored packet 14962 at time 564
Additional hops: 730
Set signal latency stall time: 18
Reenqueueing errored packet 24035 at time 565
Additional hops: 732
Set signal latency stall time: 4
Reenqueueing errored packet 33905 at time 570
Additional hops: 737
Set signal latency stall time: 10
Reenqueueing errored packet 16646 at time 572
Reenqueueing errored packet 22164 at time 575
Additional hops: 740
Set signal latency stall time: 6
Additional hops: 748
Set signal latency stall time: 16
Additional hops: 754
Set signal latency stall time: 12
Reenqueueing errored packet 10936 at time 581
Reenqueueing errored packet 33177 at time 582
Reenqueueing errored packet 10446 at time 583
Reenqueueing errored packet 23311 at time 592
Reenqueueing errored packet 20829 at time 593
Additional hops: 760
Set signal latency stall time: 12
Additional hops: 764
Set signal latency stall time: 8
Additional hops: 769
Set signal latency stall time: 10
Reenqueueing errored packet 30111 at time 606
Reenqueueing errored packet 21442 at time 609
Reenqueueing errored packet 33364 at time 612
Additional hops: 771
Set signal latency stall time: 4
Reenqueueing errored packet 37227 at time 624
Additional hops: 780
Set signal latency stall time: 18
Additional hops: 788
Set signal latency stall time: 16
Additional hops: 797
Set signal latency stall time: 18
Additional hops: 799
Set signal latency stall time: 4
Reenqueueing errored packet 38110 at time 639
Reenqueueing errored packet 28148 at time 646
Reenqueueing errored packet 11317 at time 647
Additional hops: 804
Set signal latency stall time: 10
Reenqueueing errored packet 10152 at time 652
Additional hops: 810
Set signal latency stall time: 12
Additional hops: 815
Set signal latency stall time: 10
Reenqueueing errored packet 27171 at time 661
Additional hops: 821
Set signal latency stall time: 12
Reenqueueing errored packet 27130 at time 667
Reenqueueing errored packet 27419 at time 668
Additional hops: 828
Set signal latency stall time: 14
Additional hops: 831
Set signal latency stall time: 6
Reenqueueing errored packet 13949 at time 674
Reenqueueing errored packet 40249 at time 680
Additional hops: 839
Set signal latency stall time: 16
Reenqueueing errored packet 21507 at time 687
Additional hops: 844
Set signal latency stall time: 10
Additional hops: 851
Set signal latency stall time: 14
Reenqueueing errored packet 13163 at time 697
Reenqueueing errored packet 29541 at time 698
Additional hops: 854
Set signal latency stall time: 6
Additional hops: 859
Set signal latency stall time: 10
Additional hops: 871
Set signal latency stall time: 24
Additional hops: 877
Set signal latency stall time: 12
Additional hops: 880
Set signal latency stall time: 6
Reenqueueing errored packet 24725 at time 709
Reenqueueing errored packet 25062 at time 709
Additional hops: 885
Set signal latency stall time: 10
Reenqueueing errored packet 19553 at time 713
Reenqueueing errored packet 40914 at time 714
Additional hops: 891
Set signal latency stall time: 12
Reenqueueing errored packet 32722 at time 720
Reenqueueing errored packet 35214 at time 720
Reenqueueing errored packet 19726 at time 727
Reenqueueing errored packet 13602 at time 730
Additional hops: 898
Set signal latency stall time: 14
Additional hops: 902
Set signal latency stall time: 8
Additional hops: 911
Set signal latency stall time: 18
Reenqueueing errored packet 26593 at time 746
Additional hops: 920
Set signal latency stall time: 18
Reenqueueing errored packet 16937 at time 751
Additional hops: 927
Set signal latency stall time: 14
Additional hops: 934
Set signal latency stall time: 14
Additional hops: 940
Set signal latency stall time: 12
Additional hops: 945
Set signal latency stall time: 10
Additional hops: 957
Set signal latency stall time: 24
Additional hops: 964
Set signal latency stall time: 14
Reenqueueing errored packet 19650 at time 762
Additional hops: 970
Set signal latency stall time: 12
Reenqueueing errored packet 28455 at time 765
Reenqueueing errored packet 23707 at time 766
Additional hops: 977
Set signal latency stall time: 14
Reenqueueing errored packet 39294 at time 768
Reenqueueing errored packet 38265 at time 769
Reenqueueing errored packet 27370 at time 770
Additional hops: 987
Set signal latency stall time: 20
Reenqueueing errored packet 23179 at time 775
Reenqueueing errored packet 36672 at time 776
Additional hops: 992
Set signal latency stall time: 10
Reenqueueing errored packet 34106 at time 781
Reenqueueing errored packet 9632 at time 782
Reenqueueing errored packet 38780 at time 789
Reenqueueing errored packet 12262 at time 791
Additional hops: 998
Set signal latency stall time: 12
Additional hops: 1004
Set signal latency stall time: 12
Additional hops: 1008
Set signal latency stall time: 8
Reenqueueing errored packet 21378 at time 819
Reenqueueing errored packet 15515 at time 819
Reenqueueing errored packet 25801 at time 820
Additional hops: 1016
Set signal latency stall time: 16
Additional hops: 1021
Set signal latency stall time: 10
Additional hops: 1032
Set signal latency stall time: 22
Additional hops: 1040
Set signal latency stall time: 16
Reenqueueing errored packet 31396 at time 841
Additional hops: 1047
Set signal latency stall time: 14
Additional hops: 1057
Set signal latency stall time: 20
Additional hops: 1063
Set signal latency stall time: 12
Additional hops: 1068
Set signal latency stall time: 10
Additional hops: 1076
Set signal latency stall time: 16
Reenqueueing errored packet 35256 at time 848
Additional hops: 1080
Set signal latency stall time: 8
Additional hops: 1085
Set signal latency stall time: 10
Additional hops: 1113
Set signal latency stall time: 56
Reenqueueing errored packet 37902 at time 856
Reenqueueing errored packet 30081 at time 856
Reenqueueing errored packet 27066 at time 857
Additional hops: 1115
Set signal latency stall time: 4
Reenqueueing errored packet 48247 at time 858
Reenqueueing errored packet 34481 at time 858
Additional hops: 1122
Set signal latency stall time: 14
Additional hops: 1130
Set signal latency stall time: 16
Reenqueueing errored packet 16231 at time 860
Reenqueueing errored packet 48914 at time 862
Additional hops: 1137
Set signal latency stall time: 14
Reenqueueing errored packet 24300 at time 863
Reenqueueing errored packet 15007 at time 863
Reenqueueing errored packet 12437 at time 864
Additional hops: 1145
Set signal latency stall time: 16
Additional hops: 1151
Set signal latency stall time: 12
Reenqueueing errored packet 31312 at time 873
Additional hops: 1156
Set signal latency stall time: 10
Reenqueueing errored packet 23566 at time 875
Reenqueueing errored packet 21345 at time 877
Additional hops: 1163
Set signal latency stall time: 14
Reenqueueing errored packet 46396 at time 879
Reenqueueing errored packet 19850 at time 882
Reenqueueing errored packet 45956 at time 884
Additional hops: 1172
Set signal latency stall time: 18
Additional hops: 1177
Set signal latency stall time: 10
Reenqueueing errored packet 34122 at time 892
Reenqueueing errored packet 45279 at time 899
Additional hops: 1182
Set signal latency stall time: 10
Additional hops: 1189
Set signal latency stall time: 14
Reenqueueing errored packet 17194 at time 907
Additional hops: 1198
Set signal latency stall time: 18
Additional hops: 1202
Set signal latency stall time: 8
Reenqueueing errored packet 1604 at time 909
Reenqueueing errored packet 28180 at time 911
Additional hops: 1205
Set signal latency stall time: 6
Additional hops: 1213
Set signal latency stall time: 16
Additional hops: 1219
Set signal latency stall time: 12
Additional hops: 1227
Set signal latency stall time: 16
Reenqueueing errored packet 29444 at time 917
Reenqueueing errored packet 37984 at time 918
Additional hops: 1232
Set signal latency stall time: 10
Reenqueueing errored packet 27422 at time 921
Additional hops: 1236
Set signal latency stall time: 8
Additional hops: 1241
Set signal latency stall time: 10
Reenqueueing errored packet 37879 at time 924
Reenqueueing errored packet 18258 at time 926
Reenqueueing errored packet 19861 at time 928
Additional hops: 1248
Set signal latency stall time: 14
Additional hops: 1255
Set signal latency stall time: 14
Reenqueueing errored packet 42335 at time 930
Reenqueueing errored packet 28888 at time 931
Reenqueueing errored packet 28507 at time 933
Reenqueueing errored packet 38639 at time 934
Reenqueueing errored packet 48134 at time 943
Reenqueueing errored packet 41011 at time 944
Additional hops: 1263
Set signal latency stall time: 16
Additional hops: 1272
Set signal latency stall time: 18
Additional hops: 1281
Set signal latency stall time: 18
Reenqueueing errored packet 21838 at time 970
Reenqueueing errored packet 17982 at time 974
Reenqueueing errored packet 24516 at time 975
Additional hops: 1285
Set signal latency stall time: 8
Additional hops: 1293
Set signal latency stall time: 16
Reenqueueing errored packet 43580 at time 988
Additional hops: 1300
Set signal latency stall time: 14
Reenqueueing errored packet 20922 at time 1001
Additional hops: 1305
Set signal latency stall time: 10
Reenqueueing errored packet 37006 at time 1005
Reenqueueing errored packet 46868 at time 1013
Additional hops: 1312
Set signal latency stall time: 14
Additional hops: 1318
Set signal latency stall time: 12
Additional hops: 1326
Set signal latency stall time: 16
Additional hops: 1337
Set signal latency stall time: 22
Reenqueueing errored packet 50875 at time 1026
Reenqueueing errored packet 18000 at time 1028
Additional hops: 1341
Set signal latency stall time: 8
Additional hops: 1347
Set signal latency stall time: 12
Reenqueueing errored packet 21138 at time 1036
Additional hops: 1355
Set signal latency stall time: 16
Reenqueueing errored packet 52152 at time 1042
Additional hops: 1362
Set signal latency stall time: 14
Reenqueueing errored packet 14318 at time 1046
Additional hops: 1365
Set signal latency stall time: 6
Reenqueueing errored packet 31704 at time 1048
Additional hops: 1369
Set signal latency stall time: 8
Additional hops: 1378
Set signal latency stall time: 18
Reenqueueing errored packet 63090 at time 1054
Reenqueueing errored packet 39365 at time 1056
Reenqueueing errored packet 43693 at time 1057
Additional hops: 1385
Set signal latency stall time: 14
Reenqueueing errored packet 43625 at time 1059
Additional hops: 1392
Set signal latency stall time: 14
Additional hops: 1396
Set signal latency stall time: 8
Additional hops: 1401
Set signal latency stall time: 10
Additional hops: 1406
Set signal latency stall time: 10
Reenqueueing errored packet 21240 at time 1068
Additional hops: 1410
Set signal latency stall time: 8
Additional hops: 1416
Set signal latency stall time: 12
Reenqueueing errored packet 60662 at time 1072
Reenqueueing errored packet 28849 at time 1072
Reenqueueing errored packet 28204 at time 1076
Reenqueueing errored packet 44376 at time 1077
Reenqueueing errored packet 39579 at time 1078
Reenqueueing errored packet 40653 at time 1079
Reenqueueing errored packet 29351 at time 1083
Additional hops: 1421
Set signal latency stall time: 10
Reenqueueing errored packet 48001 at time 1098
Additional hops: 1426
Set signal latency stall time: 10
Additional hops: 1433
Set signal latency stall time: 14
Reenqueueing errored packet 34549 at time 1110
Additional hops: 1442
Set signal latency stall time: 18
Additional hops: 1448
Set signal latency stall time: 12
Additional hops: 1450
Set signal latency stall time: 4
Additional hops: 1457
Set signal latency stall time: 14
Reenqueueing errored packet 67578 at time 1124
Reenqueueing errored packet 20593 at time 1124
Reenqueueing errored packet 47837 at time 1128
Reenqueueing errored packet 21415 at time 1132
Additional hops: 1463
Set signal latency stall time: 12
Additional hops: 1465
Set signal latency stall time: 4
Additional hops: 1469
Set signal latency stall time: 8
Additional hops: 1476
Set signal latency stall time: 14
Reenqueueing errored packet 25548 at time 1138
Reenqueueing errored packet 61668 at time 1139
Reenqueueing errored packet 51502 at time 1144
Reenqueueing errored packet 33259 at time 1146
Additional hops: 1488
Set signal latency stall time: 24
Additional hops: 1493
Set signal latency stall time: 10
Additional hops: 1504
Set signal latency stall time: 22
Additional hops: 1511
Set signal latency stall time: 14
Reenqueueing errored packet 44336 at time 1152
Additional hops: 1514
Set signal latency stall time: 6
Reenqueueing errored packet 47538 at time 1159
Additional hops: 1520
Set signal latency stall time: 12
Reenqueueing errored packet 66900 at time 1165
Reenqueueing errored packet 24259 at time 1165
Reenqueueing errored packet 15081 at time 1172
Reenqueueing errored packet 19017 at time 1172
Reenqueueing errored packet 40768 at time 1174
Additional hops: 1525
Set signal latency stall time: 10
Additional hops: 1533
Set signal latency stall time: 16
Additional hops: 1536
Set signal latency stall time: 6
Additional hops: 1542
Set signal latency stall time: 12
Reenqueueing errored packet 67289 at time 1185
Reenqueueing errored packet 51882 at time 1188
Reenqueueing errored packet 25833 at time 1192
Additional hops: 1547
Set signal latency stall time: 10
Reenqueueing errored packet 43089 at time 1195
Reenqueueing errored packet 64109 at time 1205
Additional hops: 1560
Set signal latency stall time: 26
Additional hops: 1563
Set signal latency stall time: 6
Additional hops: 1569
Set signal latency stall time: 12
Reenqueueing errored packet 71984 at time 1215
Additional hops: 1581
Set signal latency stall time: 24
Additional hops: 1585
Set signal latency stall time: 8
Reenqueueing errored packet 61601 at time 1227
Reenqueueing errored packet 15688 at time 1232
Additional hops: 1590
Set signal latency stall time: 10
Reenqueueing errored packet 50521 at time 1235
Additional hops: 1595
Set signal latency stall time: 10
Reenqueueing errored packet 23535 at time 1241
Reenqueueing errored packet 54452 at time 1245
Additional hops: 1605
Set signal latency stall time: 20
Additional hops: 1610
Set signal latency stall time: 10
Reenqueueing errored packet 53892 at time 1250
Reenqueueing errored packet 42960 at time 1260
Additional hops: 1618
Set signal latency stall time: 16
Reenqueueing errored packet 38935 at time 1267
Additional hops: 1622
Set signal latency stall time: 8
Additional hops: 1630
Set signal latency stall time: 16
Additional hops: 1634
Set signal latency stall time: 8
Reenqueueing errored packet 51137 at time 1280
Reenqueueing errored packet 25319 at time 1281
Additional hops: 1643
Set signal latency stall time: 18
Reenqueueing errored packet 46130 at time 1287
Additional hops: 1645
Set signal latency stall time: 4
Additional hops: 1648
Set signal latency stall time: 6
Additional hops: 1653
Set signal latency stall time: 10
Reenqueueing errored packet 35977 at time 1293
Reenqueueing errored packet 75175 at time 1295
Additional hops: 1659
Set signal latency stall time: 12
Reenqueueing errored packet 67984 at time 1299
Reenqueueing errored packet 50417 at time 1301
Reenqueueing errored packet 59185 at time 1303
Additional hops: 1667
Set signal latency stall time: 16
Reenqueueing errored packet 42109 at time 1309
Additional hops: 1675
Set signal latency stall time: 16
Additional hops: 1686
Set signal latency stall time: 22
Additional hops: 1694
Set signal latency stall time: 16
Additional hops: 1701
Set signal latency stall time: 14
Additional hops: 1709
Set signal latency stall time: 16
Additional hops: 1717
Set signal latency stall time: 16
Additional hops: 1726
Set signal latency stall time: 18
Reenqueueing errored packet 26364 at time 1321
Additional hops: 1731
Set signal latency stall time: 10
Reenqueueing errored packet 32457 at time 1326
Additional hops: 1737
Set signal latency stall time: 12
Reenqueueing errored packet 38301 at time 1328
Reenqueueing errored packet 26433 at time 1329
Reenqueueing errored packet 65157 at time 1331
Reenqueueing errored packet 26167 at time 1331
Reenqueueing errored packet 24209 at time 1333
Reenqueueing errored packet 25047 at time 1334
Reenqueueing errored packet 64557 at time 1336
Reenqueueing errored packet 66095 at time 1339
Additional hops: 1744
Set signal latency stall time: 14
Additional hops: 1749
Set signal latency stall time: 10
Additional hops: 1757
Set signal latency stall time: 16
Additional hops: 1764
Set signal latency stall time: 14
Reenqueueing errored packet 47980 at time 1354
Additional hops: 1766
Set signal latency stall time: 4
Additional hops: 1772
Set signal latency stall time: 12
Additional hops: 1776
Set signal latency stall time: 8
Reenqueueing errored packet 68370 at time 1361
Reenqueueing errored packet 82027 at time 1362
Additional hops: 1783
Set signal latency stall time: 14
Reenqueueing errored packet 28999 at time 1366
Reenqueueing errored packet 44466 at time 1367
Reenqueueing errored packet 33449 at time 1368
Reenqueueing errored packet 43341 at time 1370
Reenqueueing errored packet 54615 at time 1377
Additional hops: 1792
Set signal latency stall time: 18
Additional hops: 1804
Set signal latency stall time: 24
Additional hops: 1808
Set signal latency stall time: 8
Additional hops: 1815
Set signal latency stall time: 14
Additional hops: 1826
Set signal latency stall time: 22
Additional hops: 1837
Set signal latency stall time: 22
Reenqueueing errored packet 81294 at time 1397
Additional hops: 1845
Set signal latency stall time: 16
Reenqueueing errored packet 30069 at time 1398
Additional hops: 1851
Set signal latency stall time: 12
Reenqueueing errored packet 18910 at time 1405
Reenqueueing errored packet 72010 at time 1407
Reenqueueing errored packet 41450 at time 1412
Additional hops: 1859
Set signal latency stall time: 16
Reenqueueing errored packet 34294 at time 1414
Additional hops: 1861
Set signal latency stall time: 4
Reenqueueing errored packet 20197 at time 1417
Reenqueueing errored packet 18860 at time 1418
Reenqueueing errored packet 83034 at time 1421
Additional hops: 1868
Set signal latency stall time: 14
Reenqueueing errored packet 27649 at time 1430
Additional hops: 1882
Set signal latency stall time: 28
Additional hops: 1888
Set signal latency stall time: 12
Reenqueueing errored packet 46413 at time 1440
Additional hops: 1895
Set signal latency stall time: 14
Additional hops: 1902
Set signal latency stall time: 14
Additional hops: 1904
Set signal latency stall time: 4
Reenqueueing errored packet 29865 at time 1450
Additional hops: 1912
Set signal latency stall time: 16
Additional hops: 1919
Set signal latency stall time: 14
Reenqueueing errored packet 82148 at time 1454
Reenqueueing errored packet 59395 at time 1455
Additional hops: 1928
Set signal latency stall time: 18
Additional hops: 1933
Set signal latency stall time: 10
Additional hops: 1939
Set signal latency stall time: 12
Reenqueueing errored packet 56211 at time 1464
Additional hops: 1948
Set signal latency stall time: 18
Reenqueueing errored packet 19090 at time 1465
Additional hops: 1955
Set signal latency stall time: 14
Reenqueueing errored packet 47891 at time 1467
Additional hops: 1961
Set signal latency stall time: 12
Reenqueueing errored packet 55183 at time 1469
Additional hops: 1971
Set signal latency stall time: 20
Reenqueueing errored packet 52985 at time 1473
Reenqueueing errored packet 61958 at time 1475
Additional hops: 1976
Set signal latency stall time: 10
Reenqueueing errored packet 33642 at time 1480
Reenqueueing errored packet 56048 at time 1480
Reenqueueing errored packet 59988 at time 1480
Additional hops: 1983
Set signal latency stall time: 14
Additional hops: 1990
Set signal latency stall time: 14
Reenqueueing errored packet 31035 at time 1483
Additional hops: 1997
Set signal latency stall time: 14
Additional hops: 2003
Set signal latency stall time: 12
Reenqueueing errored packet 77194 at time 1486
Additional hops: 2007
Set signal latency stall time: 8
Additional hops: 2020
Set signal latency stall time: 26
Reenqueueing errored packet 24181 at time 1491
Additional hops: 2028
Set signal latency stall time: 16
Reenqueueing errored packet 66897 at time 1495
Reenqueueing errored packet 56641 at time 1497
Reenqueueing errored packet 83111 at time 1498
Reenqueueing errored packet 45601 at time 1498
Reenqueueing errored packet 79010 at time 1499
Additional hops: 2037
Set signal latency stall time: 18
Additional hops: 2045
Set signal latency stall time: 16
Additional hops: 2054
Set signal latency stall time: 18
Additional hops: 2060
Set signal latency stall time: 12
Reenqueueing errored packet 61200 at time 1511
Additional hops: 2067
Set signal latency stall time: 14
Additional hops: 2074
Set signal latency stall time: 14
Reenqueueing errored packet 19276 at time 1517
Additional hops: 2080
Set signal latency stall time: 12
Reenqueueing errored packet 44348 at time 1519
Reenqueueing errored packet 32071 at time 1520
Reenqueueing errored packet 78524 at time 1522
Reenqueueing errored packet 41794 at time 1524
Reenqueueing errored packet 62372 at time 1527
Reenqueueing errored packet 69528 at time 1527
Additional hops: 2088
Set signal latency stall time: 16
Additional hops: 2092
Set signal latency stall time: 8
Reenqueueing errored packet 41981 at time 1530
Additional hops: 2100
Set signal latency stall time: 16
Additional hops: 2106
Set signal latency stall time: 12
Reenqueueing errored packet 57383 at time 1538
Additional hops: 2115
Set signal latency stall time: 18
Reenqueueing errored packet 43051 at time 1546
Reenqueueing errored packet 33715 at time 1546
Reenqueueing errored packet 38540 at time 1548
Additional hops: 2124
Set signal latency stall time: 18
Reenqueueing errored packet 29412 at time 1560
Additional hops: 2132
Set signal latency stall time: 16
Additional hops: 2138
Set signal latency stall time: 12
Reenqueueing errored packet 62186 at time 1576
Reenqueueing errored packet 24270 at time 1576
Additional hops: 2145
Set signal latency stall time: 14
Reenqueueing errored packet 62675 at time 1579
Additional hops: 2149
Set signal latency stall time: 8
Additional hops: 2158
Set signal latency stall time: 18
Additional hops: 2167
Set signal latency stall time: 18
Reenqueueing errored packet 60138 at time 1591
Reenqueueing errored packet 34175 at time 1593
Additional hops: 2174
Set signal latency stall time: 14
Additional hops: 2176
Set signal latency stall time: 4
Additional hops: 2182
Set signal latency stall time: 12
Additional hops: 2188
Set signal latency stall time: 12
Reenqueueing errored packet 80008 at time 1603
Reenqueueing errored packet 54195 at time 1603
Reenqueueing errored packet 30493 at time 1605
Additional hops: 2194
Set signal latency stall time: 12
Additional hops: 2199
Set signal latency stall time: 10
Additional hops: 2211
Set signal latency stall time: 24
Reenqueueing errored packet 62233 at time 1612
Reenqueueing errored packet 35320 at time 1613
Reenqueueing errored packet 35319 at time 1615
Additional hops: 2215
Set signal latency stall time: 8
Reenqueueing errored packet 62246 at time 1621
Additional hops: 2221
Set signal latency stall time: 12
Reenqueueing errored packet 66389 at time 1623
Reenqueueing errored packet 66703 at time 1624
Additional hops: 2230
Set signal latency stall time: 18
Reenqueueing errored packet 52954 at time 1635
Reenqueueing errored packet 24999 at time 1636
Additional hops: 2234
Set signal latency stall time: 8
Additional hops: 2239
Set signal latency stall time: 10
Additional hops: 2253
Set signal latency stall time: 28
Reenqueueing errored packet 46543 at time 1647
Additional hops: 2256
Set signal latency stall time: 6
Reenqueueing errored packet 98411 at time 1650
Additional hops: 2259
Set signal latency stall time: 6
Additional hops: 2264
Set signal latency stall time: 10
Reenqueueing errored packet 48419 at time 1655
Reenqueueing errored packet 79284 at time 1655
Reenqueueing errored packet 99693 at time 1657
Reenqueueing errored packet 91611 at time 1664
Additional hops: 2275
Set signal latency stall time: 22
Additional hops: 2280
Set signal latency stall time: 10
Additional hops: 2286
Set signal latency stall time: 12
Reenqueueing errored packet 22803 at time 1674
Reenqueueing errored packet 57534 at time 1678
Reenqueueing errored packet 64961 at time 1682
Additional hops: 2296
Set signal latency stall time: 20
Reenqueueing errored packet 58705 at time 1689
Additional hops: 2301
Set signal latency stall time: 10
Additional hops: 2306
Set signal latency stall time: 10
Additional hops: 2317
Set signal latency stall time: 22
Additional hops: 2326
Set signal latency stall time: 18
Reenqueueing errored packet 23980 at time 1703
Additional hops: 2331
Set signal latency stall time: 10
Reenqueueing errored packet 67650 at time 1704
Reenqueueing errored packet 48029 at time 1705
Reenqueueing errored packet 59060 at time 1714
Reenqueueing errored packet 35130 at time 1716
Additional hops: 2338
Set signal latency stall time: 14
Reenqueueing errored packet 24082 at time 1719
Additional hops: 2344
Set signal latency stall time: 12
Additional hops: 2352
Set signal latency stall time: 16
Additional hops: 2356
Set signal latency stall time: 8
Reenqueueing errored packet 36391 at time 1733
Reenqueueing errored packet 45109 at time 1738
Reenqueueing errored packet 69181 at time 1738
Additional hops: 2362
Set signal latency stall time: 12
Reenqueueing errored packet 55308 at time 1746
Additional hops: 2366
Set signal latency stall time: 8
Additional hops: 2376
Set signal latency stall time: 20
Additional hops: 2384
Set signal latency stall time: 16
Additional hops: 2391
Set signal latency stall time: 14
Additional hops: 2400
Set signal latency stall time: 18
Reenqueueing errored packet 52090 at time 1756
Additional hops: 2407
Set signal latency stall time: 14
Reenqueueing errored packet 76325 at time 1758
Additional hops: 2411
Set signal latency stall time: 8
Reenqueueing errored packet 38237 at time 1768
Reenqueueing errored packet 71815 at time 1769
Reenqueueing errored packet 42279 at time 1770
Reenqueueing errored packet 27860 at time 1771
Reenqueueing errored packet 35358 at time 1773
Reenqueueing errored packet 56933 at time 1774
Additional hops: 2416
Set signal latency stall time: 10
Additional hops: 2426
Set signal latency stall time: 20
Additional hops: 2433
Set signal latency stall time: 14
Reenqueueing errored packet 42783 at time 1785
Additional hops: 2441
Set signal latency stall time: 16
Additional hops: 2450
Set signal latency stall time: 18
Additional hops: 2455
Set signal latency stall time: 10
Additional hops: 2461
Set signal latency stall time: 12
Additional hops: 2464
Set signal latency stall time: 6
Reenqueueing errored packet 71826 at time 1799
Reenqueueing errored packet 60101 at time 1802
Reenqueueing errored packet 86830 at time 1804
Reenqueueing errored packet 36770 at time 1804
Reenqueueing errored packet 26502 at time 1804
Reenqueueing errored packet 65317 at time 1806
Additional hops: 2472
Set signal latency stall time: 16
Additional hops: 2479
Set signal latency stall time: 14
Additional hops: 2491
Set signal latency stall time: 24
Reenqueueing errored packet 79359 at time 1810
Additional hops: 2502
Set signal latency stall time: 22
Reenqueueing errored packet 54727 at time 1822
Reenqueueing errored packet 36508 at time 1823
Additional hops: 2509
Set signal latency stall time: 14
Additional hops: 2512
Set signal latency stall time: 6
Additional hops: 2522
Set signal latency stall time: 20
Additional hops: 2528
Set signal latency stall time: 12
Reenqueueing errored packet 110409 at time 1834
Reenqueueing errored packet 24741 at time 1834
Additional hops: 2529
Set signal latency stall time: 2
Additional hops: 2531
Set signal latency stall time: 4
Additional hops: 2543
Set signal latency stall time: 24
Reenqueueing errored packet 110698 at time 1837
Reenqueueing errored packet 35419 at time 1839
Additional hops: 2546
Set signal latency stall time: 6
Reenqueueing errored packet 51609 at time 1840
Reenqueueing errored packet 111251 at time 1841
Reenqueueing errored packet 80036 at time 1846
Reenqueueing errored packet 78822 at time 1846
Additional hops: 2556
Set signal latency stall time: 20
Reenqueueing errored packet 56242 at time 1849
Additional hops: 2560
Set signal latency stall time: 8
Additional hops: 2566
Set signal latency stall time: 12
Additional hops: 2571
Set signal latency stall time: 10
Reenqueueing errored packet 40350 at time 1858
Reenqueueing errored packet 24861 at time 1861
Reenqueueing errored packet 71914 at time 1862
Additional hops: 2574
Set signal latency stall time: 6
Additional hops: 2581
Set signal latency stall time: 14
Reenqueueing errored packet 61160 at time 1867
Reenqueueing errored packet 35578 at time 1869
Additional hops: 2587
Set signal latency stall time: 12
Reenqueueing errored packet 75555 at time 1870
Additional hops: 2593
Set signal latency stall time: 12
Additional hops: 2599
Set signal latency stall time: 12
Reenqueueing errored packet 55389 at time 1881
Reenqueueing errored packet 54658 at time 1882
Additional hops: 2604
Set signal latency stall time: 10
Reenqueueing errored packet 44722 at time 1884
Additional hops: 2610
Set signal latency stall time: 12
Additional hops: 2615
Set signal latency stall time: 10
Reenqueueing errored packet 57183 at time 1891
Reenqueueing errored packet 75408 at time 1894
Additional hops: 2625
Set signal latency stall time: 20
Reenqueueing errored packet 47799 at time 1896
Reenqueueing errored packet 52206 at time 1897
Additional hops: 2632
Set signal latency stall time: 14
Additional hops: 2643
Set signal latency stall time: 22
Additional hops: 2645
Set signal latency stall time: 4
Reenqueueing errored packet 115042 at time 1905
Additional hops: 2649
Set signal latency stall time: 8
Reenqueueing errored packet 79706 at time 1912
Reenqueueing errored packet 72926 at time 1915
Reenqueueing errored packet 75196 at time 1917
Reenqueueing errored packet 38862 at time 1921
Additional hops: 2655
Set signal latency stall time: 12
Additional hops: 2661
Set signal latency stall time: 12
Additional hops: 2664
Set signal latency stall time: 6
Additional hops: 2671
Set signal latency stall time: 14
Reenqueueing errored packet 109185 at time 1929
Reenqueueing errored packet 54589 at time 1934
Reenqueueing errored packet 48412 at time 1934
Additional hops: 2680
Set signal latency stall time: 18
Reenqueueing errored packet 58054 at time 1938
Additional hops: 2685
Set signal latency stall time: 10
Additional hops: 2690
Set signal latency stall time: 10
Additional hops: 2694
Set signal latency stall time: 8
Reenqueueing errored packet 36483 at time 1954
Reenqueueing errored packet 105992 at time 1955
Reenqueueing errored packet 59675 at time 1956
Reenqueueing errored packet 85143 at time 1957
Additional hops: 2704
Set signal latency stall time: 20
Additional hops: 2711
Set signal latency stall time: 14
Additional hops: 2720
Set signal latency stall time: 18
Additional hops: 2727
Set signal latency stall time: 14
Reenqueueing errored packet 30546 at time 1990
Additional hops: 2735
Set signal latency stall time: 16
Additional hops: 2746
Set signal latency stall time: 22
Reenqueueing errored packet 76767 at time 1995
Additional hops: 2754
Set signal latency stall time: 16
Additional hops: 2764
Set signal latency stall time: 20
Reenqueueing errored packet 83799 at time 2001
Reenqueueing errored packet 82664 at time 2004
Additional hops: 2772
Set signal latency stall time: 16
Reenqueueing errored packet 58139 at time 2009
Additional hops: 2780
Set signal latency stall time: 16
Additional hops: 2785
Set signal latency stall time: 10
Reenqueueing errored packet 56648 at time 2016
Additional hops: 2788
Set signal latency stall time: 6
Reenqueueing errored packet 31220 at time 2021
Reenqueueing errored packet 120400 at time 2023
Reenqueueing errored packet 44021 at time 2023
Additional hops: 2803
Set signal latency stall time: 30
Reenqueueing errored packet 60580 at time 2024
Additional hops: 2807
Set signal latency stall time: 8
Additional hops: 2816
Set signal latency stall time: 18
Additional hops: 2826
Set signal latency stall time: 20
Reenqueueing errored packet 100138 at time 2037
Additional hops: 2831
Set signal latency stall time: 10
Reenqueueing errored packet 78150 at time 2047
Reenqueueing errored packet 61085 at time 2052
Reenqueueing errored packet 27712 at time 2054
Reenqueueing errored packet 94512 at time 2055
Additional hops: 2835
Set signal latency stall time: 8
Additional hops: 2845
Set signal latency stall time: 20
Additional hops: 2850
Set signal latency stall time: 10
Additional hops: 2855
Set signal latency stall time: 10
Reenqueueing errored packet 113423 at time 2075
Additional hops: 2858
Set signal latency stall time: 6
Additional hops: 2867
Set signal latency stall time: 18
Additional hops: 2871
Set signal latency stall time: 8
Reenqueueing errored packet 69240 at time 2080
Reenqueueing errored packet 99407 at time 2083
Reenqueueing errored packet 81717 at time 2084
Additional hops: 2875
Set signal latency stall time: 8
Reenqueueing errored packet 97883 at time 2087
Reenqueueing errored packet 44257 at time 2088
Additional hops: 2885
Set signal latency stall time: 20
Reenqueueing errored packet 73954 at time 2096
Additional hops: 2887
Set signal latency stall time: 4
Additional hops: 2892
Set signal latency stall time: 10
Additional hops: 2899
Set signal latency stall time: 14
Additional hops: 2905
Set signal latency stall time: 12
Reenqueueing errored packet 125674 at time 2102
Additional hops: 2913
Set signal latency stall time: 16
Reenqueueing errored packet 112661 at time 2108
Reenqueueing errored packet 44899 at time 2109
Reenqueueing errored packet 41602 at time 2112
Reenqueueing errored packet 83259 at time 2113
Additional hops: 2922
Set signal latency stall time: 18
Additional hops: 2925
Set signal latency stall time: 6
Additional hops: 2926
Set signal latency stall time: 2
Additional hops: 2937
Set signal latency stall time: 22
Reenqueueing errored packet 127980 at time 2122
Reenqueueing errored packet 108417 at time 2126
Additional hops: 2945
Set signal latency stall time: 16
Additional hops: 2954
Set signal latency stall time: 18
Additional hops: 2963
Set signal latency stall time: 18
Additional hops: 2974
Set signal latency stall time: 22
Reenqueueing errored packet 84231 at time 2133
Additional hops: 2981
Set signal latency stall time: 14
Additional hops: 2986
Set signal latency stall time: 10
Additional hops: 2996
Set signal latency stall time: 20
Reenqueueing errored packet 45003 at time 2144
Reenqueueing errored packet 48025 at time 2145
Additional hops: 3009
Set signal latency stall time: 26
Additional hops: 3014
Set signal latency stall time: 10
Additional hops: 3017
Set signal latency stall time: 6
Reenqueueing errored packet 46514 at time 2149
Additional hops: 3024
Set signal latency stall time: 14
Reenqueueing errored packet 110069 at time 2150
Reenqueueing errored packet 66257 at time 2151
Reenqueueing errored packet 86053 at time 2152
Reenqueueing errored packet 118813 at time 2155
Reenqueueing errored packet 43623 at time 2155
Additional hops: 3034
Set signal latency stall time: 20
Additional hops: 3043
Set signal latency stall time: 18
Reenqueueing errored packet 85850 at time 2158
Additional hops: 3047
Set signal latency stall time: 8
Additional hops: 3050
Set signal latency stall time: 6
Additional hops: 3060
Set signal latency stall time: 20
Reenqueueing errored packet 36047 at time 2162
Reenqueueing errored packet 114123 at time 2167
Reenqueueing errored packet 120871 at time 2167
Additional hops: 3067
Set signal latency stall time: 14
Additional hops: 3075
Set signal latency stall time: 16
Reenqueueing errored packet 66127 at time 2174
Additional hops: 3079
Set signal latency stall time: 8
Reenqueueing errored packet 36367 at time 2176
Reenqueueing errored packet 45704 at time 2181
Reenqueueing errored packet 64095 at time 2182
Additional hops: 3084
Set signal latency stall time: 10
Additional hops: 3088
Set signal latency stall time: 8
Additional hops: 3096
Set signal latency stall time: 16
Additional hops: 3106
Set signal latency stall time: 20
Reenqueueing errored packet 60679 at time 2188
Additional hops: 3114
Set signal latency stall time: 16
Reenqueueing errored packet 118168 at time 2193
Additional hops: 3121
Set signal latency stall time: 14
Additional hops: 3130
Set signal latency stall time: 18
Reenqueueing errored packet 72277 at time 2195
Reenqueueing errored packet 53838 at time 2203
Additional hops: 3138
Set signal latency stall time: 16
Additional hops: 3144
Set signal latency stall time: 12
Reenqueueing errored packet 63607 at time 2208
Reenqueueing errored packet 88552 at time 2208
Reenqueueing errored packet 56221 at time 2212
Additional hops: 3149
Set signal latency stall time: 10
Additional hops: 3154
Set signal latency stall time: 10
Additional hops: 3161
Set signal latency stall time: 14
Additional hops: 3167
Set signal latency stall time: 12
Reenqueueing errored packet 78690 at time 2218
Reenqueueing errored packet 82432 at time 2221
Reenqueueing errored packet 72623 at time 2225
Reenqueueing errored packet 67943 at time 2226
Reenqueueing errored packet 83625 at time 2230
Reenqueueing errored packet 39770 at time 2230
Additional hops: 3178
Set signal latency stall time: 22
Additional hops: 3181
Set signal latency stall time: 6
Additional hops: 3192
Set signal latency stall time: 22
Additional hops: 3200
Set signal latency stall time: 16
Reenqueueing errored packet 71796 at time 2243
Reenqueueing errored packet 56166 at time 2253
Additional hops: 3208
Set signal latency stall time: 16
Reenqueueing errored packet 87479 at time 2258
Reenqueueing errored packet 35178 at time 2264
Reenqueueing errored packet 122417 at time 2270
Additional hops: 3214
Set signal latency stall time: 12
Additional hops: 3218
Set signal latency stall time: 8
Additional hops: 3221
Set signal latency stall time: 6
Reenqueueing errored packet 75534 at time 2280
Reenqueueing errored packet 63075 at time 2284
Additional hops: 3225
Set signal latency stall time: 8
Additional hops: 3233
Set signal latency stall time: 16
Additional hops: 3235
Set signal latency stall time: 4
Additional hops: 3245
Set signal latency stall time: 20
Reenqueueing errored packet 123167 at time 2299
Additional hops: 3255
Set signal latency stall time: 20
Additional hops: 3263
Set signal latency stall time: 16
Reenqueueing errored packet 90878 at time 2306
Additional hops: 3268
Set signal latency stall time: 10
Additional hops: 3278
Set signal latency stall time: 20
Additional hops: 3286
Set signal latency stall time: 16
Additional hops: 3298
Set signal latency stall time: 24
Additional hops: 3304
Set signal latency stall time: 12
Reenqueueing errored packet 55662 at time 2318
Reenqueueing errored packet 46902 at time 2319
Additional hops: 3311
Set signal latency stall time: 14
Additional hops: 3317
Set signal latency stall time: 12
Additional hops: 3320
Set signal latency stall time: 6
Reenqueueing errored packet 93880 at time 2329
Reenqueueing errored packet 67874 at time 2330
Reenqueueing errored packet 80229 at time 2330
Reenqueueing errored packet 122924 at time 2334
Additional hops: 3326
Set signal latency stall time: 12
Reenqueueing errored packet 98270 at time 2336
Reenqueueing errored packet 43339 at time 2338
Reenqueueing errored packet 127754 at time 2347
Additional hops: 3335
Set signal latency stall time: 18
Additional hops: 3340
Set signal latency stall time: 10
Additional hops: 3349
Set signal latency stall time: 18
Reenqueueing errored packet 124463 at time 2368
Additional hops: 3354
Set signal latency stall time: 10
Additional hops: 3359
Set signal latency stall time: 10
Additional hops: 3362
Set signal latency stall time: 6
Additional hops: 3368
Set signal latency stall time: 12
Additional hops: 3376
Set signal latency stall time: 16
Reenqueueing errored packet 80041 at time 2381
Reenqueueing errored packet 139533 at time 2383
Reenqueueing errored packet 126276 at time 2383
Reenqueueing errored packet 91288 at time 2384
Additional hops: 3384
Set signal latency stall time: 16
Reenqueueing errored packet 130418 at time 2391
Additional hops: 3388
Set signal latency stall time: 8
Additional hops: 3402
Set signal latency stall time: 28
Additional hops: 3410
Set signal latency stall time: 16
Additional hops: 3413
Set signal latency stall time: 6
Reenqueueing errored packet 119060 at time 2400
Reenqueueing errored packet 126331 at time 2402
Reenqueueing errored packet 48418 at time 2406
Additional hops: 3421
Set signal latency stall time: 16
Additional hops: 3431
Set signal latency stall time: 20
Additional hops: 3438
Set signal latency stall time: 14
Additional hops: 3443
Set signal latency stall time: 10
Additional hops: 3452
Set signal latency stall time: 18
Reenqueueing errored packet 34862 at time 2422
Additional hops: 3458
Set signal latency stall time: 12
Reenqueueing errored packet 130430 at time 2425
Additional hops: 3460
Set signal latency stall time: 4
Additional hops: 3464
Set signal latency stall time: 8
Reenqueueing errored packet 50309 at time 2428
Reenqueueing errored packet 102099 at time 2429
Additional hops: 3469
Set signal latency stall time: 10
Reenqueueing errored packet 122654 at time 2432
Reenqueueing errored packet 73288 at time 2434
Additional hops: 3479
Set signal latency stall time: 20
Reenqueueing errored packet 79204 at time 2436
Reenqueueing errored packet 76711 at time 2437
Additional hops: 3483
Set signal latency stall time: 8
Reenqueueing errored packet 130510 at time 2442
Additional hops: 3491
Set signal latency stall time: 16
Additional hops: 3498
Set signal latency stall time: 14
Reenqueueing errored packet 100421 at time 2449
Additional hops: 3501
Set signal latency stall time: 6
Reenqueueing errored packet 55848 at time 2455
Reenqueueing errored packet 144325 at time 2459
Reenqueueing errored packet 60864 at time 2459
Reenqueueing errored packet 100231 at time 2460
Additional hops: 3510
Set signal latency stall time: 18
Additional hops: 3519
Set signal latency stall time: 18
Additional hops: 3529
Set signal latency stall time: 20
Additional hops: 3533
Set signal latency stall time: 8
Additional hops: 3542
Set signal latency stall time: 18
Reenqueueing errored packet 132859 at time 2479
Additional hops: 3549
Set signal latency stall time: 14
Reenqueueing errored packet 64123 at time 2481
Reenqueueing errored packet 51212 at time 2483
Reenqueueing errored packet 44777 at time 2485
Additional hops: 3556
Set signal latency stall time: 14
Reenqueueing errored packet 102971 at time 2492
Additional hops: 3564
Set signal latency stall time: 16
Reenqueueing errored packet 51472 at time 2494
Additional hops: 3571
Set signal latency stall time: 14
Reenqueueing errored packet 72757 at time 2500
Additional hops: 3578
Set signal latency stall time: 14
Reenqueueing errored packet 102366 at time 2509
Additional hops: 3584
Set signal latency stall time: 12
Reenqueueing errored packet 75344 at time 2513
Additional hops: 3592
Set signal latency stall time: 16
Additional hops: 3600
Set signal latency stall time: 16
Reenqueueing errored packet 136735 at time 2516
Additional hops: 3610
Set signal latency stall time: 20
Additional hops: 3622
Set signal latency stall time: 24
Additional hops: 3632
Set signal latency stall time: 20
Reenqueueing errored packet 53990 at time 2525
Additional hops: 3635
Set signal latency stall time: 6
Reenqueueing errored packet 42875 at time 2531
Reenqueueing errored packet 83323 at time 2531
Additional hops: 3643
Set signal latency stall time: 16
Reenqueueing errored packet 99840 at time 2534
Reenqueueing errored packet 38969 at time 2539
Reenqueueing errored packet 54764 at time 2544
Additional hops: 3650
Set signal latency stall time: 14
Additional hops: 3660
Set signal latency stall time: 20
Additional hops: 3667
Set signal latency stall time: 14
Reenqueueing errored packet 95958 at time 2548
Additional hops: 3671
Set signal latency stall time: 8
Additional hops: 3678
Set signal latency stall time: 14
Reenqueueing errored packet 122846 at time 2559
Reenqueueing errored packet 56527 at time 2566
Additional hops: 3687
Set signal latency stall time: 18
Additional hops: 3696
Set signal latency stall time: 18
Additional hops: 3704
Set signal latency stall time: 16
Reenqueueing errored packet 78268 at time 2572
Additional hops: 3709
Set signal latency stall time: 10
Reenqueueing errored packet 103805 at time 2585
Additional hops: 3715
Set signal latency stall time: 12
Reenqueueing errored packet 100920 at time 2587
Additional hops: 3722
Set signal latency stall time: 14
Additional hops: 3726
Set signal latency stall time: 8
Additional hops: 3730
Set signal latency stall time: 8
Additional hops: 3736
Set signal latency stall time: 12
Reenqueueing errored packet 132902 at time 2599
Reenqueueing errored packet 95657 at time 2603
Reenqueueing errored packet 100620 at time 2605
Reenqueueing errored packet 122610 at time 2605
Additional hops: 3747
Set signal latency stall time: 22
Reenqueueing errored packet 66842 at time 2611
Additional hops: 3758
Set signal latency stall time: 22
Additional hops: 3767
Set signal latency stall time: 18
Additional hops: 3779
Set signal latency stall time: 24
Additional hops: 3782
Set signal latency stall time: 6
Reenqueueing errored packet 43183 at time 2632
Reenqueueing errored packet 87271 at time 2633
Reenqueueing errored packet 46329 at time 2634
Reenqueueing errored packet 93903 at time 2637
Additional hops: 3786
Set signal latency stall time: 8
Additional hops: 3794
Set signal latency stall time: 16
Reenqueueing errored packet 41375 at time 2649
Additional hops: 3803
Set signal latency stall time: 18
Reenqueueing errored packet 118784 at time 2653
Additional hops: 3813
Set signal latency stall time: 20
Reenqueueing errored packet 110099 at time 2664
Additional hops: 3817
Set signal latency stall time: 8
Reenqueueing errored packet 70747 at time 2669
Additional hops: 3823
Set signal latency stall time: 12
Reenqueueing errored packet 117482 at time 2676
Additional hops: 3829
Set signal latency stall time: 12
Reenqueueing errored packet 61456 at time 2682
Additional hops: 3833
Set signal latency stall time: 8
Additional hops: 3841
Set signal latency stall time: 16
Additional hops: 3843
Set signal latency stall time: 4
Reenqueueing errored packet 61940 at time 2685
Additional hops: 3852
Set signal latency stall time: 18
Reenqueueing errored packet 131014 at time 2688
Reenqueueing errored packet 129159 at time 2689
Reenqueueing errored packet 117167 at time 2691
Additional hops: 3856
Set signal latency stall time: 8
Additional hops: 3862
Set signal latency stall time: 12
Additional hops: 3869
Set signal latency stall time: 14
Reenqueueing errored packet 45423 at time 2700
Additional hops: 3875
Set signal latency stall time: 12
Reenqueueing errored packet 87130 at time 2704
Reenqueueing errored packet 108744 at time 2705
Additional hops: 3884
Set signal latency stall time: 18
Reenqueueing errored packet 81109 at time 2714
Additional hops: 3891
Set signal latency stall time: 14
Reenqueueing errored packet 120705 at time 2716
Additional hops: 3900
Set signal latency stall time: 18
Additional hops: 3906
Set signal latency stall time: 12
Additional hops: 3910
Set signal latency stall time: 8
Additional hops: 3918
Set signal latency stall time: 16
Additional hops: 3921
Set signal latency stall time: 6
Additional hops: 3925
Set signal latency stall time: 8
Reenqueueing errored packet 145056 at time 2729
Additional hops: 3929
Set signal latency stall time: 8
Reenqueueing errored packet 141669 at time 2730
Reenqueueing errored packet 52781 at time 2732
Reenqueueing errored packet 71067 at time 2734
Additional hops: 3936
Set signal latency stall time: 14
Reenqueueing errored packet 46043 at time 2735
Additional hops: 3942
Set signal latency stall time: 12
Additional hops: 3947
Set signal latency stall time: 10
Additional hops: 3954
Set signal latency stall time: 14
Reenqueueing errored packet 73037 at time 2738
Additional hops: 3960
Set signal latency stall time: 12
Additional hops: 3967
Set signal latency stall time: 14
Additional hops: 3971
Set signal latency stall time: 8
Additional hops: 3980
Set signal latency stall time: 18
Reenqueueing errored packet 117209 at time 2749
Reenqueueing errored packet 107802 at time 2749
Reenqueueing errored packet 124435 at time 2752
Additional hops: 3984
Set signal latency stall time: 8
Additional hops: 3991
Set signal latency stall time: 14
Reenqueueing errored packet 147368 at time 2755
Reenqueueing errored packet 125261 at time 2756
Additional hops: 3993
Set signal latency stall time: 4
Reenqueueing errored packet 135625 at time 2761
Reenqueueing errored packet 74378 at time 2761
Additional hops: 4003
Set signal latency stall time: 20
Additional hops: 4011
Set signal latency stall time: 16
Reenqueueing errored packet 133027 at time 2765
Additional hops: 4018
Set signal latency stall time: 14
Additional hops: 4026
Set signal latency stall time: 16
Additional hops: 4035
Set signal latency stall time: 18
Additional hops: 4046
Set signal latency stall time: 22
Additional hops: 4051
Set signal latency stall time: 10
Additional hops: 4056
Set signal latency stall time: 10
Additional hops: 4059
Set signal latency stall time: 6
Additional hops: 4068
Set signal latency stall time: 18
Reenqueueing errored packet 71124 at time 2781
Reenqueueing errored packet 88529 at time 2781
Reenqueueing errored packet 117829 at time 2783
Reenqueueing errored packet 129652 at time 2784
Reenqueueing errored packet 112805 at time 2784
Additional hops: 4072
Set signal latency stall time: 8
Additional hops: 4079
Set signal latency stall time: 14
Additional hops: 4089
Set signal latency stall time: 20
Reenqueueing errored packet 118204 at time 2787
Additional hops: 4098
Set signal latency stall time: 18
Reenqueueing errored packet 110922 at time 2792
Reenqueueing errored packet 113667 at time 2798
Additional hops: 4102
Set signal latency stall time: 8
Reenqueueing errored packet 56774 at time 2801
Additional hops: 4106
Set signal latency stall time: 8
Reenqueueing errored packet 98822 at time 2806
Additional hops: 4110
Set signal latency stall time: 8
Reenqueueing errored packet 135532 at time 2807
Reenqueueing errored packet 110757 at time 2807
Additional hops: 4120
Set signal latency stall time: 20
Reenqueueing errored packet 134841 at time 2815
Reenqueueing errored packet 53952 at time 2829
Additional hops: 4133
Set signal latency stall time: 26
Additional hops: 4138
Set signal latency stall time: 10
Additional hops: 4144
Set signal latency stall time: 12
Reenqueueing errored packet 152536 at time 2847
Additional hops: 4151
Set signal latency stall time: 14
Additional hops: 4160
Set signal latency stall time: 18
Additional hops: 4166
Set signal latency stall time: 12
Additional hops: 4175
Set signal latency stall time: 18
Additional hops: 4180
Set signal latency stall time: 10
Reenqueueing errored packet 45668 at time 2860
Reenqueueing errored packet 123750 at time 2862
Additional hops: 4191
Set signal latency stall time: 22
Reenqueueing errored packet 113881 at time 2866
Additional hops: 4202
Set signal latency stall time: 22
Reenqueueing errored packet 92574 at time 2869
Additional hops: 4207
Set signal latency stall time: 10
Additional hops: 4212
Set signal latency stall time: 10
Reenqueueing errored packet 125383 at time 2870
Additional hops: 4219
Set signal latency stall time: 14
Reenqueueing errored packet 57794 at time 2872
Additional hops: 4226
Set signal latency stall time: 14
Additional hops: 4239
Set signal latency stall time: 26
Additional hops: 4246
Set signal latency stall time: 14
Additional hops: 4250
Set signal latency stall time: 8
Reenqueueing errored packet 84349 at time 2880
Reenqueueing errored packet 95317 at time 2885
Reenqueueing errored packet 61460 at time 2886
Reenqueueing errored packet 147863 at time 2887
Reenqueueing errored packet 72905 at time 2889
Additional hops: 4257
Set signal latency stall time: 14
Additional hops: 4262
Set signal latency stall time: 10
Additional hops: 4271
Set signal latency stall time: 18
Additional hops: 4276
Set signal latency stall time: 10
Reenqueueing errored packet 82028 at time 2900
Reenqueueing errored packet 49380 at time 2901
Reenqueueing errored packet 126193 at time 2904
Additional hops: 4282
Set signal latency stall time: 12
Additional hops: 4284
Set signal latency stall time: 4
Reenqueueing errored packet 86032 at time 2908
Additional hops: 4292
Set signal latency stall time: 16
Reenqueueing errored packet 137880 at time 2910
Additional hops: 4297
Set signal latency stall time: 10
Additional hops: 4305
Set signal latency stall time: 16
Additional hops: 4312
Set signal latency stall time: 14
Additional hops: 4315
Set signal latency stall time: 6
Reenqueueing errored packet 137930 at time 2918
Reenqueueing errored packet 139175 at time 2921
Additional hops: 4322
Set signal latency stall time: 14
Additional hops: 4327
Set signal latency stall time: 10
Additional hops: 4336
Set signal latency stall time: 18
Reenqueueing errored packet 85397 at time 2925
Reenqueueing errored packet 133367 at time 2932
Reenqueueing errored packet 124755 at time 2932
Reenqueueing errored packet 126701 at time 2932
Reenqueueing errored packet 127581 at time 2936
Additional hops: 4346
Set signal latency stall time: 20
Additional hops: 4354
Set signal latency stall time: 16
Additional hops: 4361
Set signal latency stall time: 14
Reenqueueing errored packet 70808 at time 2942
Additional hops: 4366
Set signal latency stall time: 10
Additional hops: 4376
Set signal latency stall time: 20
Additional hops: 4382
Set signal latency stall time: 12
Additional hops: 4393
Set signal latency stall time: 22
Reenqueueing errored packet 151857 at time 2953
Additional hops: 4402
Set signal latency stall time: 18
Additional hops: 4407
Set signal latency stall time: 10
Reenqueueing errored packet 117600 at time 2955
Reenqueueing errored packet 81904 at time 2957
Additional hops: 4415
Set signal latency stall time: 16
Reenqueueing errored packet 89888 at time 2958
Reenqueueing errored packet 137659 at time 2961
Additional hops: 4423
Set signal latency stall time: 16
Reenqueueing errored packet 154696 at time 2965
Additional hops: 4430
Set signal latency stall time: 14
Additional hops: 4434
Set signal latency stall time: 8
Additional hops: 4441
Set signal latency stall time: 14
Reenqueueing errored packet 155678 at time 2980
Reenqueueing errored packet 111831 at time 2981
Additional hops: 4446
Set signal latency stall time: 10
Additional hops: 4451
Set signal latency stall time: 10
Reenqueueing errored packet 150399 at time 2986
Additional hops: 4457
Set signal latency stall time: 12
Additional hops: 4462
Set signal latency stall time: 10
Reenqueueing errored packet 133039 at time 2992
Additional hops: 4469
Set signal latency stall time: 14
Reenqueueing errored packet 129361 at time 2997
Additional hops: 4481
Set signal latency stall time: 24
Reenqueueing errored packet 156085 at time 2999
Additional hops: 4488
Set signal latency stall time: 14
Additional hops: 4494
Set signal latency stall time: 12
Reenqueueing errored packet 159530 at time 3019
Additional hops: 4500
Set signal latency stall time: 12
Reenqueueing errored packet 133942 at time 3022
Reenqueueing errored packet 68024 at time 3022
Additional hops: 4509
Set signal latency stall time: 18
Additional hops: 4518
Set signal latency stall time: 18
Reenqueueing errored packet 93046 at time 3033
Additional hops: 4527
Set signal latency stall time: 18
Additional hops: 4534
Set signal latency stall time: 14
Reenqueueing errored packet 82093 at time 3047
Reenqueueing errored packet 53204 at time 3047
Additional hops: 4539
Set signal latency stall time: 10
Additional hops: 4545
Set signal latency stall time: 12
Additional hops: 4553
Set signal latency stall time: 16
Additional hops: 4561
Set signal latency stall time: 16
Additional hops: 4566
Set signal latency stall time: 10
Reenqueueing errored packet 134678 at time 3071
Additional hops: 4572
Set signal latency stall time: 12
Additional hops: 4578
Set signal latency stall time: 12
Reenqueueing errored packet 59856 at time 3083
Additional hops: 4582
Set signal latency stall time: 8
Additional hops: 4592
Set signal latency stall time: 20
Additional hops: 4598
Set signal latency stall time: 12
Reenqueueing errored packet 68276 at time 3095
Reenqueueing errored packet 168921 at time 3096
Additional hops: 4606
Set signal latency stall time: 16
Additional hops: 4610
Set signal latency stall time: 8
Reenqueueing errored packet 141301 at time 3102
Additional hops: 4615
Set signal latency stall time: 10
Reenqueueing errored packet 98300 at time 3108
Reenqueueing errored packet 99192 at time 3113
Additional hops: 4623
Set signal latency stall time: 16
Reenqueueing errored packet 108896 at time 3115
Additional hops: 4628
Set signal latency stall time: 10
Additional hops: 4632
Set signal latency stall time: 8
Additional hops: 4637
Set signal latency stall time: 10
Additional hops: 4644
Set signal latency stall time: 14
Reenqueueing errored packet 137200 at time 3126
Additional hops: 4652
Set signal latency stall time: 16
Reenqueueing errored packet 143753 at time 3131
Additional hops: 4658
Set signal latency stall time: 12
Additional hops: 4667
Set signal latency stall time: 18
Additional hops: 4676
Set signal latency stall time: 18
Additional hops: 4681
Set signal latency stall time: 10
Additional hops: 4688
Set signal latency stall time: 14
Additional hops: 4695
Set signal latency stall time: 14
Reenqueueing errored packet 59489 at time 3173
Reenqueueing errored packet 141370 at time 3175
Additional hops: 4701
Set signal latency stall time: 12
Additional hops: 4707
Set signal latency stall time: 12
Reenqueueing errored packet 119728 at time 3186
Additional hops: 4716
Set signal latency stall time: 18
Reenqueueing errored packet 96534 at time 3193
Additional hops: 4729
Set signal latency stall time: 26
Additional hops: 4738
Set signal latency stall time: 18
Reenqueueing errored packet 139584 at time 3211
Additional hops: 4746
Set signal latency stall time: 16
Additional hops: 4753
Set signal latency stall time: 14
Additional hops: 4760
Set signal latency stall time: 14
Additional hops: 4766
Set signal latency stall time: 12
Additional hops: 4776
Set signal latency stall time: 20
Reenqueueing errored packet 112160 at time 3219
Reenqueueing errored packet 162287 at time 3227
Reenqueueing errored packet 126911 at time 3228
Additional hops: 4785
Set signal latency stall time: 18
Reenqueueing errored packet 130198 at time 3230
Reenqueueing errored packet 132611 at time 3231
Additional hops: 4795
Set signal latency stall time: 20
Reenqueueing errored packet 81515 at time 3239
Additional hops: 4802
Set signal latency stall time: 14
Reenqueueing errored packet 129654 at time 3248
Additional hops: 4808
Set signal latency stall time: 12
Additional hops: 4815
Set signal latency stall time: 14
Additional hops: 4823
Set signal latency stall time: 16
Additional hops: 4832
Set signal latency stall time: 18
Additional hops: 4836
Set signal latency stall time: 8
Reenqueueing errored packet 139176 at time 3262
Reenqueueing errored packet 105900 at time 3267
Additional hops: 4843
Set signal latency stall time: 14
Reenqueueing errored packet 141302 at time 3272
Additional hops: 4849
Set signal latency stall time: 12
Additional hops: 4856
Set signal latency stall time: 14
Additional hops: 4864
Set signal latency stall time: 16
Reenqueueing errored packet 109736 at time 3282
Additional hops: 4870
Set signal latency stall time: 12
Additional hops: 4873
Set signal latency stall time: 6
Additional hops: 4876
Set signal latency stall time: 6
Reenqueueing errored packet 66020 at time 3286
Additional hops: 4884
Set signal latency stall time: 16
Reenqueueing errored packet 159835 at time 3290
Reenqueueing errored packet 139438 at time 3291
Reenqueueing errored packet 106276 at time 3292
Reenqueueing errored packet 144999 at time 3295
Reenqueueing errored packet 140020 at time 3296
Additional hops: 4892
Set signal latency stall time: 16
Reenqueueing errored packet 98624 at time 3303
Additional hops: 4899
Set signal latency stall time: 14
Reenqueueing errored packet 131425 at time 3315
Additional hops: 4903
Set signal latency stall time: 8
Additional hops: 4911
Set signal latency stall time: 16
Reenqueueing errored packet 158794 at time 3327
Additional hops: 4918
Set signal latency stall time: 14
Additional hops: 4924
Set signal latency stall time: 12
Additional hops: 4927
Set signal latency stall time: 6
Reenqueueing errored packet 167207 at time 3342
Reenqueueing errored packet 64927 at time 3347
Reenqueueing errored packet 135814 at time 3350
Additional hops: 4930
Set signal latency stall time: 6
Additional hops: 4938
Set signal latency stall time: 16
Additional hops: 4944
Set signal latency stall time: 12
Additional hops: 4949
Set signal latency stall time: 10
Additional hops: 4957
Set signal latency stall time: 16
Additional hops: 4965
Set signal latency stall time: 16
Additional hops: 4970
Set signal latency stall time: 10
Reenqueueing errored packet 170013 at time 3390
Additional hops: 4975
Set signal latency stall time: 10
Additional hops: 4979
Set signal latency stall time: 8
Reenqueueing errored packet 157523 at time 3399
Reenqueueing errored packet 135847 at time 3400
Reenqueueing errored packet 152963 at time 3402
Reenqueueing errored packet 169881 at time 3403
Additional hops: 4984
Set signal latency stall time: 10
Additional hops: 4987
Set signal latency stall time: 6
Additional hops: 4991
Set signal latency stall time: 8
Reenqueueing errored packet 172215 at time 3414
Reenqueueing errored packet 147692 at time 3414
Additional hops: 4994
Set signal latency stall time: 6
Reenqueueing errored packet 171127 at time 3418
Additional hops: 4999
Set signal latency stall time: 10
Additional hops: 5005
Set signal latency stall time: 12
Reenqueueing errored packet 168218 at time 3422
Additional hops: 5013
Set signal latency stall time: 16
Additional hops: 5018
Set signal latency stall time: 10
Reenqueueing errored packet 150511 at time 3429
Additional hops: 5025
Set signal latency stall time: 14
Additional hops: 5032
Set signal latency stall time: 14
Additional hops: 5037
Set signal latency stall time: 10
Reenqueueing errored packet 97998 at time 3432
Additional hops: 5048
Set signal latency stall time: 22
Reenqueueing errored packet 73567 at time 3439
Reenqueueing errored packet 148139 at time 3439
Reenqueueing errored packet 141390 at time 3444
Additional hops: 5058
Set signal latency stall time: 20
Reenqueueing errored packet 91542 at time 3460
Additional hops: 5066
Set signal latency stall time: 16
Additional hops: 5073
Set signal latency stall time: 14
Additional hops: 5083
Set signal latency stall time: 20
Additional hops: 5089
Set signal latency stall time: 12
Additional hops: 5095
Set signal latency stall time: 12
Additional hops: 5117
Set signal latency stall time: 44
Reenqueueing errored packet 136801 at time 3486
Additional hops: 5122
Set signal latency stall time: 10
Reenqueueing errored packet 157511 at time 3487
Additional hops: 5134
Set signal latency stall time: 24
Reenqueueing errored packet 93666 at time 3491
Additional hops: 5138
Set signal latency stall time: 8
Additional hops: 5148
Set signal latency stall time: 20
Reenqueueing errored packet 174235 at time 3497
Additional hops: 5157
Set signal latency stall time: 18
Additional hops: 5160
Set signal latency stall time: 6
Additional hops: 5168
Set signal latency stall time: 16
Reenqueueing errored packet 150828 at time 3504
Additional hops: 5174
Set signal latency stall time: 12
Reenqueueing errored packet 167180 at time 3509
Reenqueueing errored packet 109176 at time 3516
Reenqueueing errored packet 160002 at time 3518
Reenqueueing errored packet 153536 at time 3520
Reenqueueing errored packet 67002 at time 3520
Reenqueueing errored packet 56648 at time 3524
Additional hops: 5182
Set signal latency stall time: 16
Additional hops: 5186
Set signal latency stall time: 8
Additional hops: 5192
Set signal latency stall time: 12
Additional hops: 5198
Set signal latency stall time: 12
Additional hops: 5206
Set signal latency stall time: 16
Reenqueueing errored packet 183949 at time 3535
Additional hops: 5212
Set signal latency stall time: 12
Additional hops: 5215
Set signal latency stall time: 6
Reenqueueing errored packet 174540 at time 3540
Reenqueueing errored packet 162401 at time 3541
Additional hops: 5222
Set signal latency stall time: 14
Additional hops: 5228
Set signal latency stall time: 12
Additional hops: 5234
Set signal latency stall time: 12
Reenqueueing errored packet 175530 at time 3544
Reenqueueing errored packet 137334 at time 3546
Additional hops: 5239
Set signal latency stall time: 10
Reenqueueing errored packet 142115 at time 3550
Reenqueueing errored packet 160156 at time 3556
Additional hops: 5245
Set signal latency stall time: 12
Reenqueueing errored packet 174093 at time 3558
Additional hops: 5251
Set signal latency stall time: 12
Additional hops: 5257
Set signal latency stall time: 12
Reenqueueing errored packet 124127 at time 3569
Additional hops: 5269
Set signal latency stall time: 24
Additional hops: 5276
Set signal latency stall time: 14
Additional hops: 5281
Set signal latency stall time: 10
Additional hops: 5294
Set signal latency stall time: 26
Reenqueueing errored packet 159759 at time 3580
Additional hops: 5296
Set signal latency stall time: 4
Reenqueueing errored packet 180970 at time 3587
Reenqueueing errored packet 143095 at time 3587
Additional hops: 5301
Set signal latency stall time: 10
Reenqueueing errored packet 87573 at time 3595
Additional hops: 5310
Set signal latency stall time: 18
Additional hops: 5316
Set signal latency stall time: 12
Reenqueueing errored packet 58464 at time 3604
Reenqueueing errored packet 175330 at time 3605
Additional hops: 5321
Set signal latency stall time: 10
Additional hops: 5329
Set signal latency stall time: 16
Additional hops: 5339
Set signal latency stall time: 20
Additional hops: 5347
Set signal latency stall time: 16
Reenqueueing errored packet 143643 at time 3633
Additional hops: 5352
Set signal latency stall time: 10
Additional hops: 5359
Set signal latency stall time: 14
Reenqueueing errored packet 100658 at time 3639
Reenqueueing errored packet 60720 at time 3641
Additional hops: 5365
Set signal latency stall time: 12
Reenqueueing errored packet 75506 at time 3644
Additional hops: 5374
Set signal latency stall time: 18
Additional hops: 5378
[...]
Set signal latency stall time: 16
Additional hops: 13701
Set signal latency stall time: 10
Additional hops: 13708
Set signal latency stall time: 14
Reenqueueing errored packet 315406 at time 8974
Additional hops: 13713
Set signal latency stall time: 10
Reenqueueing errored packet 246759 at time 8980
Reenqueueing errored packet 326753 at time 8985
Additional hops: 13721
Set signal latency stall time: 16
Additional hops: 13731
Set signal latency stall time: 20
Additional hops: 13742
Set signal latency stall time: 22
Additional hops: 13751
Set signal latency stall time: 18
Additional hops: 13761
Set signal latency stall time: 20
Additional hops: 13769
Set signal latency stall time: 16
Additional hops: 13774
Set signal latency stall time: 10
Additional hops: 13782
Set signal latency stall time: 16
Reenqueueing errored packet 275871 at time 9009
Additional hops: 13788
Set signal latency stall time: 12
Reenqueueing errored packet 309016 at time 9015
Reenqueueing errored packet 309191 at time 9015
Additional hops: 13795
Set signal latency stall time: 14
Reenqueueing errored packet 275555 at time 9022
Reenqueueing errored packet 305679 at time 9023
Additional hops: 13800
Set signal latency stall time: 10
Reenqueueing errored packet 329043 at time 9034
Additional hops: 13810
Set signal latency stall time: 20
Additional hops: 13816
Set signal latency stall time: 12
Additional hops: 13821
Set signal latency stall time: 10
Additional hops: 13823
Set signal latency stall time: 4
Additional hops: 13829
Set signal latency stall time: 12
Additional hops: 13836
Set signal latency stall time: 14
Reenqueueing errored packet 310330 at time 9054
Additional hops: 13849
Set signal latency stall time: 26
Reenqueueing errored packet 327107 at time 9060
Additional hops: 13858
Set signal latency stall time: 18
Additional hops: 13866
Set signal latency stall time: 16
Reenqueueing errored packet 160485 at time 9063
Additional hops: 13875
Set signal latency stall time: 18
Additional hops: 13887
Set signal latency stall time: 24
Additional hops: 13897
Set signal latency stall time: 20
Additional hops: 13902
Set signal latency stall time: 10
Additional hops: 13911
Set signal latency stall time: 18
Additional hops: 13913
Set signal latency stall time: 4
Reenqueueing errored packet 285129 at time 9079
Additional hops: 13918
Set signal latency stall time: 10
Reenqueueing errored packet 281517 at time 9081
Reenqueueing errored packet 306278 at time 9082
Additional hops: 13926
Set signal latency stall time: 16
Additional hops: 13934
Set signal latency stall time: 16
Additional hops: 13939
Set signal latency stall time: 10
Reenqueueing errored packet 302305 at time 9088
Reenqueueing errored packet 235265 at time 9090
Reenqueueing errored packet 278329 at time 9091
Additional hops: 13951
Set signal latency stall time: 24
Additional hops: 13961
Set signal latency stall time: 20
Additional hops: 13968
Set signal latency stall time: 14
Reenqueueing errored packet 275945 at time 9100
Additional hops: 13971
Set signal latency stall time: 6
Additional hops: 13979
Set signal latency stall time: 16
Additional hops: 13989
Set signal latency stall time: 20
Reenqueueing errored packet 294585 at time 9124
Additional hops: 13994
Set signal latency stall time: 10
Additional hops: 14000
Set signal latency stall time: 12
Additional hops: 14007
Set signal latency stall time: 14
Reenqueueing errored packet 314213 at time 9140
Reenqueueing errored packet 325974 at time 9140
Reenqueueing errored packet 288647 at time 9146
Additional hops: 14016
Set signal latency stall time: 18
Additional hops: 14024
Set signal latency stall time: 16
Additional hops: 14032
Set signal latency stall time: 16
Reenqueueing errored packet 277099 at time 9166
Additional hops: 14038
Set signal latency stall time: 12
Additional hops: 14048
Set signal latency stall time: 20
Additional hops: 14056
Set signal latency stall time: 16
Additional hops: 14061
Set signal latency stall time: 10
Additional hops: 14067
Set signal latency stall time: 12
Additional hops: 14078
Set signal latency stall time: 22
Reenqueueing errored packet 324457 at time 9179
Reenqueueing errored packet 314879 at time 9181
Reenqueueing errored packet 284782 at time 9182
Reenqueueing errored packet 329451 at time 9184
Reenqueueing errored packet 303236 at time 9186
Reenqueueing errored packet 322125 at time 9189
Additional hops: 14082
Set signal latency stall time: 8
Additional hops: 14093
Set signal latency stall time: 22
Additional hops: 14099
Set signal latency stall time: 12
Additional hops: 14105
Set signal latency stall time: 12
Additional hops: 14114
Set signal latency stall time: 18
Additional hops: 14119
Set signal latency stall time: 10
Additional hops: 14126
Set signal latency stall time: 14
Additional hops: 14135
Set signal latency stall time: 18
Additional hops: 14145
Set signal latency stall time: 20
Additional hops: 14153
Set signal latency stall time: 16
Additional hops: 14160
Set signal latency stall time: 14
Additional hops: 14165
Set signal latency stall time: 10
Additional hops: 14171
Set signal latency stall time: 12
Additional hops: 14191
Set signal latency stall time: 40
Additional hops: 14195
Set signal latency stall time: 8
Additional hops: 14205
Set signal latency stall time: 20
Additional hops: 14213
Set signal latency stall time: 16
Reenqueueing errored packet 297300 at time 9258
Reenqueueing errored packet 165710 at time 9258
Additional hops: 14220
Set signal latency stall time: 14
Additional hops: 14223
Set signal latency stall time: 6
Additional hops: 14233
Set signal latency stall time: 20
Reenqueueing errored packet 331055 at time 9261
Reenqueueing errored packet 334034 at time 9261
Additional hops: 14238
Set signal latency stall time: 10
Reenqueueing errored packet 335285 at time 9265
Additional hops: 14243
Set signal latency stall time: 10
Reenqueueing errored packet 335080 at time 9273
Additional hops: 14248
Set signal latency stall time: 10
Reenqueueing errored packet 326039 at time 9274
Additional hops: 14256
Set signal latency stall time: 16
Reenqueueing errored packet 286773 at time 9280
Reenqueueing errored packet 81064 at time 9292
Additional hops: 14260
Set signal latency stall time: 8
Additional hops: 14266
Set signal latency stall time: 12
Additional hops: 14274
Set signal latency stall time: 16
Reenqueueing errored packet 317349 at time 9304
Additional hops: 14281
Set signal latency stall time: 14
Additional hops: 14292
Set signal latency stall time: 22
Reenqueueing errored packet 331124 at time 9318
Additional hops: 14301
Set signal latency stall time: 18
Additional hops: 14310
Set signal latency stall time: 18
Additional hops: 14315
Set signal latency stall time: 10
Reenqueueing errored packet 285799 at time 9325
Additional hops: 14318
Set signal latency stall time: 6
Additional hops: 14329
Set signal latency stall time: 22
Reenqueueing errored packet 350671 at time 9332
Additional hops: 14335
Set signal latency stall time: 12
Additional hops: 14340
Set signal latency stall time: 10
Reenqueueing errored packet 319282 at time 9334
Reenqueueing errored packet 338941 at time 9337
Additional hops: 14348
Set signal latency stall time: 16
Reenqueueing errored packet 311657 at time 9340
Additional hops: 14352
Set signal latency stall time: 8
Additional hops: 14357
Set signal latency stall time: 10
Reenqueueing errored packet 347529 at time 9349
Additional hops: 14368
Set signal latency stall time: 22
Additional hops: 14374
Set signal latency stall time: 12
Reenqueueing errored packet 212771 at time 9351
Additional hops: 14378
Set signal latency stall time: 8
Additional hops: 14384
Set signal latency stall time: 12
Reenqueueing errored packet 310545 at time 9361
Additional hops: 14388
Set signal latency stall time: 8
Additional hops: 14394
Set signal latency stall time: 12
Reenqueueing errored packet 335677 at time 9362
Reenqueueing errored packet 350942 at time 9367
Reenqueueing errored packet 283612 at time 9372
Additional hops: 14403
Set signal latency stall time: 18
Additional hops: 14410
Set signal latency stall time: 14
Additional hops: 14418
Set signal latency stall time: 16
Reenqueueing errored packet 318954 at time 9408
Additional hops: 14424
Set signal latency stall time: 12
Additional hops: 14436
Set signal latency stall time: 24
Additional hops: 14446
Set signal latency stall time: 20
Reenqueueing errored packet 287112 at time 9418
Additional hops: 14453
Set signal latency stall time: 14
Additional hops: 14459
Set signal latency stall time: 12
Additional hops: 14470
Set signal latency stall time: 22
Additional hops: 14480
Set signal latency stall time: 20
Additional hops: 14482
Set signal latency stall time: 4
Reenqueueing errored packet 337942 at time 9427
Additional hops: 14500
Set signal latency stall time: 36
Reenqueueing errored packet 322610 at time 9432
Reenqueueing errored packet 344335 at time 9434
Reenqueueing errored packet 331096 at time 9435
Additional hops: 14503
Set signal latency stall time: 6
Additional hops: 14514
Set signal latency stall time: 22
Additional hops: 14517
Set signal latency stall time: 6
Reenqueueing errored packet 165182 at time 9441
Additional hops: 14528
Set signal latency stall time: 22
Additional hops: 14536
Set signal latency stall time: 16
Additional hops: 14544
Set signal latency stall time: 16
Additional hops: 14552
Set signal latency stall time: 16
Additional hops: 14564
Set signal latency stall time: 24
Additional hops: 14575
Set signal latency stall time: 22
Reenqueueing errored packet 161145 at time 9464
Additional hops: 14585
Set signal latency stall time: 20
Additional hops: 14597
Set signal latency stall time: 24
Reenqueueing errored packet 317466 at time 9467
Additional hops: 14604
Set signal latency stall time: 14
Additional hops: 14612
Set signal latency stall time: 16
Additional hops: 14628
Set signal latency stall time: 32
Reenqueueing errored packet 167643 at time 9473
Additional hops: 14638
Set signal latency stall time: 20
Additional hops: 14642
Set signal latency stall time: 8
Additional hops: 14650
Set signal latency stall time: 16
Additional hops: 14657
Set signal latency stall time: 14
Reenqueueing errored packet 299303 at time 9483
Reenqueueing errored packet 262922 at time 9484
Additional hops: 14662
Set signal latency stall time: 10
Additional hops: 14666
Set signal latency stall time: 8
Reenqueueing errored packet 309000 at time 9498
Additional hops: 14675
Set signal latency stall time: 18
Additional hops: 14682
Set signal latency stall time: 14
Reenqueueing errored packet 264640 at time 9504
Additional hops: 14690
Set signal latency stall time: 16
Additional hops: 14700
Set signal latency stall time: 20
Additional hops: 14708
Set signal latency stall time: 16
Reenqueueing errored packet 318215 at time 9513
Additional hops: 14718
Set signal latency stall time: 20
Additional hops: 14729
Set signal latency stall time: 22
Additional hops: 14741
Set signal latency stall time: 24
Reenqueueing errored packet 335716 at time 9529
Additional hops: 14750
Set signal latency stall time: 18
Additional hops: 14760
Set signal latency stall time: 20
Additional hops: 14770
Set signal latency stall time: 20
Reenqueueing errored packet 300584 at time 9546
Additional hops: 14776
Set signal latency stall time: 12
Additional hops: 14788
Set signal latency stall time: 24
Reenqueueing errored packet 319270 at time 9549
Reenqueueing errored packet 225572 at time 9551
Additional hops: 14798
Set signal latency stall time: 20
Additional hops: 14806
Set signal latency stall time: 16
Additional hops: 14815
Set signal latency stall time: 18
Reenqueueing errored packet 335280 at time 9560
Additional hops: 14818
Set signal latency stall time: 6
Additional hops: 14831
Set signal latency stall time: 26
Reenqueueing errored packet 173779 at time 9571
Additional hops: 14834
Set signal latency stall time: 6
Reenqueueing errored packet 320245 at time 9574
Additional hops: 14842
Set signal latency stall time: 16
Reenqueueing errored packet 353554 at time 9579
Additional hops: 14849
Set signal latency stall time: 14
Additional hops: 14857
Set signal latency stall time: 16
Additional hops: 14861
Set signal latency stall time: 8
Additional hops: 14869
Set signal latency stall time: 16
Additional hops: 14873
Set signal latency stall time: 8
Additional hops: 14881
Set signal latency stall time: 16
Additional hops: 14888
Set signal latency stall time: 14
Additional hops: 14897
Set signal latency stall time: 18
Reenqueueing errored packet 354012 at time 9611
Additional hops: 14908
Set signal latency stall time: 22
Additional hops: 14914
Set signal latency stall time: 12
Additional hops: 14917
Set signal latency stall time: 6
Additional hops: 14929
Set signal latency stall time: 24
Additional hops: 14942
Set signal latency stall time: 26
Additional hops: 14951
Set signal latency stall time: 18
Additional hops: 14960
Set signal latency stall time: 18
Additional hops: 14968
Set signal latency stall time: 16
Reenqueueing errored packet 320819 at time 9629
Reenqueueing errored packet 322749 at time 9629
Reenqueueing errored packet 323880 at time 9632
Reenqueueing errored packet 168752 at time 9639
Reenqueueing errored packet 334242 at time 9644
Reenqueueing errored packet 297789 at time 9646
Reenqueueing errored packet 230486 at time 9646
Additional hops: 14974
Set signal latency stall time: 12
Additional hops: 14986
Set signal latency stall time: 24
Additional hops: 14991
Set signal latency stall time: 10
Additional hops: 15002
Set signal latency stall time: 22
Reenqueueing errored packet 330289 at time 9663
Additional hops: 15010
Set signal latency stall time: 16
Additional hops: 15015
Set signal latency stall time: 10
Additional hops: 15021
Set signal latency stall time: 12
Additional hops: 15028
Set signal latency stall time: 14
Additional hops: 15033
Set signal latency stall time: 10
Additional hops: 15040
Set signal latency stall time: 14
Reenqueueing errored packet 299729 at time 9685
Additional hops: 15048
Set signal latency stall time: 16
Reenqueueing errored packet 307266 at time 9705
Additional hops: 15055
Set signal latency stall time: 14
Additional hops: 15066
Set signal latency stall time: 22
Additional hops: 15072
Set signal latency stall time: 12
Additional hops: 15080
Set signal latency stall time: 16
Additional hops: 15082
Set signal latency stall time: 4
Reenqueueing errored packet 357739 at time 9721
Additional hops: 15088
Set signal latency stall time: 12
Reenqueueing errored packet 231177 at time 9725
Additional hops: 15096
Set signal latency stall time: 16
Additional hops: 15109
Set signal latency stall time: 26
Reenqueueing errored packet 188668 at time 9728
Reenqueueing errored packet 331881 at time 9733
Additional hops: 15117
Set signal latency stall time: 16
Additional hops: 15130
Set signal latency stall time: 26
Reenqueueing errored packet 342483 at time 9742
Additional hops: 15139
Set signal latency stall time: 18
Additional hops: 15152
Set signal latency stall time: 26
Additional hops: 15160
Set signal latency stall time: 16
Reenqueueing errored packet 302099 at time 9756
Reenqueueing errored packet 324571 at time 9761
Additional hops: 15167
Set signal latency stall time: 14
Reenqueueing errored packet 323146 at time 9765
Reenqueueing errored packet 167043 at time 9766
Additional hops: 15173
Set signal latency stall time: 12
Reenqueueing errored packet 230490 at time 9774
Additional hops: 15180
Set signal latency stall time: 14
Reenqueueing errored packet 323076 at time 9779
Additional hops: 15184
Set signal latency stall time: 8
Reenqueueing errored packet 327990 at time 9786
Reenqueueing errored packet 348821 at time 9792
Reenqueueing errored packet 344130 at time 9792
Additional hops: 15190
Set signal latency stall time: 12
Additional hops: 15201
Set signal latency stall time: 22
Additional hops: 15208
Set signal latency stall time: 14
Additional hops: 15214
Set signal latency stall time: 12
Additional hops: 15226
Set signal latency stall time: 24
Reenqueueing errored packet 343848 at time 9805
Additional hops: 15231
Set signal latency stall time: 10
Reenqueueing errored packet 298531 at time 9818
Additional hops: 15239
Set signal latency stall time: 16
Reenqueueing errored packet 302465 at time 9828
Additional hops: 15250
Set signal latency stall time: 22
Reenqueueing errored packet 169828 at time 9852
Additional hops: 15254
Set signal latency stall time: 8
Additional hops: 15262
Set signal latency stall time: 16
Reenqueueing errored packet 351423 at time 9862
Additional hops: 15269
Set signal latency stall time: 14
Additional hops: 15272
Set signal latency stall time: 6
Additional hops: 15277
Set signal latency stall time: 10
Additional hops: 15283
Set signal latency stall time: 12
Reenqueueing errored packet 337770 at time 9878
Additional hops: 15288
Set signal latency stall time: 10
Reenqueueing errored packet 334661 at time 9881
Additional hops: 15297
Set signal latency stall time: 18
Reenqueueing errored packet 195542 at time 9889
Additional hops: 15304
Set signal latency stall time: 14
Additional hops: 15308
Set signal latency stall time: 8
Additional hops: 15314
Set signal latency stall time: 12
Reenqueueing errored packet 311696 at time 9901
Reenqueueing errored packet 346352 at time 9906
Reenqueueing errored packet 350115 at time 9909
Additional hops: 15328
Set signal latency stall time: 28
Additional hops: 15335
Set signal latency stall time: 14
Additional hops: 15345
Set signal latency stall time: 20
Additional hops: 15351
Set signal latency stall time: 12
Additional hops: 15357
Set signal latency stall time: 12
Reenqueueing errored packet 345864 at time 9927
Additional hops: 15363
Set signal latency stall time: 12
Additional hops: 15370
Set signal latency stall time: 14
Reenqueueing errored packet 362128 at time 9933
Reenqueueing errored packet 320154 at time 9940
Reenqueueing errored packet 355638 at time 9943
Additional hops: 15377
Set signal latency stall time: 14
Additional hops: 15388
Set signal latency stall time: 22
Reenqueueing errored packet 338758 at time 9946
Additional hops: 15394
Set signal latency stall time: 12
Additional hops: 15405
Set signal latency stall time: 22
Reenqueueing errored packet 340151 at time 9959
Reenqueueing errored packet 311570 at time 9961
Additional hops: 15412
Set signal latency stall time: 14
Additional hops: 15419
Set signal latency stall time: 14
Additional hops: 15430
Set signal latency stall time: 22
Additional hops: 15439
Set signal latency stall time: 18
Reenqueueing errored packet 337237 at time 9976
Reenqueueing errored packet 312027 at time 9978
Additional hops: 15446
Set signal latency stall time: 14
Additional hops: 15448
Set signal latency stall time: 4
Reenqueueing errored packet 278698 at time 9988
Reenqueueing errored packet 304114 at time 9992
Additional hops: 15453
Set signal latency stall time: 10
Additional hops: 15463
Set signal latency stall time: 20
Class 0:
Packet latency average = 1916.11
	minimum = 5
	maximum = 8857
Network latency average = 1577.67
	minimum = 5
	maximum = 7180
Slowest packet = 11465
Flit latency average = 1577.67
	minimum = 5
	maximum = 7180
Slowest flit = 162320
Fragmentation average = 0
	minimum = 0
	maximum = 0
Injected packet rate average = 0.617691
	minimum = 0.4202 (at node 17)
	maximum = 0.9053 (at node 27)
Accepted packet rate average = 0.499387
	minimum = 0.48 (at node 21)
	maximum = 0.5151 (at node 56)
Injected flit rate average = 0.617691
	minimum = 0.4202 (at node 17)
	maximum = 0.9053 (at node 27)
Accepted flit rate average= 0.499387
	minimum = 0.48 (at node 21)
	maximum = 0.5151 (at node 56)
Injected packet length average = 1
Accepted packet length average = 1
Total in-flight flits = 76399 (0 measured)
latency change    = 1
throughput change = 1
Average latency for class 0 exceeded 500 cycles. Aborting simulation.
Too many sample periods needed to converge
Simulation unstable, ending ...
Total run time 61.9167
