BEGIN Configuration File: examples/ecc_mesh88_config_1_0.550_link_5
// $Id$

// Copyright (c) 2007-2015, Trustees of The Leland Stanford Junior University
// All rights reserved.
//
// Redistribution and use in source and binary forms, with or without
// modification, are permitted provided that the following conditions are met:
//
// Redistributions of source code must retain the above copyright notice, this
// list of conditions and the following disclaimer.
// Redistributions in binary form must reproduce the above copyright notice,
// this list of conditions and the following disclaimer in the documentation
// and/or other materials provided with the distribution.
//
// THIS SOFTWARE IS PROVIDED BY THE COPYRIGHT HOLDERS AND CONTRIBUTORS "AS IS"
// AND ANY EXPRESS OR IMPLIED WARRANTIES, INCLUDING, BUT NOT LIMITED TO, THE
// IMPLIED WARRANTIES OF MERCHANTABILITY AND FITNESS FOR A PARTICULAR PURPOSE
// ARE DISCLAIMED. IN NO EVENT SHALL THE COPYRIGHT OWNER OR CONTRIBUTORS BE
// LIABLE FOR ANY DIRECT, INDIRECT, INCIDENTAL, SPECIAL, EXEMPLARY, OR
// CONSEQUENTIAL DAMAGES (INCLUDING, BUT NOT LIMITED TO, PROCUREMENT OF
// SUBSTITUTE GOODS OR SERVICES; LOSS OF USE, DATA, OR PROFITS; OR BUSINESS
// INTERRUPTION) HOWEVER CAUSED AND ON ANY THEORY OF LIABILITY, WHETHER IN
// CONTRACT, STRICT LIABILITY, OR TORT (INCLUDING NEGLIGENCE OR OTHERWISE)
// ARISING IN ANY WAY OUT OF THE USE OF THIS SOFTWARE, EVEN IF ADVISED OF THE
// POSSIBILITY OF SUCH DAMAGE.

// Dragonfly
//




vc_buf_size = 256;


wait_for_tail_credit = 0;

//
// Router architecture
//
vc_allocator = separable_input_first; 
sw_allocator = separable_input_first;
alloc_iters  = 1;

credit_delay   = 2;
routing_delay  = 0;
vc_alloc_delay = 1;
sw_alloc_delay = 1;
st_final_delay = 1;

input_speedup     = 1;
output_speedup    = 1;
internal_speedup  = 2.0;


warmup_periods = 3;
sim_count          = 1;

sample_period  = 10000;  


routing_function = dor;
num_vcs     = 2;

priority = none;
traffic       = uniform; 

injection_rate = 0.55;
packet_size = 1;
injection_rate_uses_flits = 1;

topology = mesh;

k  = 8;
n  = 2;

fer = 5;
ecc = link;

watch_out=-;
//watch_file = watch.txt;

ecc = link;

stats_out = examples/ecc_mesh88_config_1_0.550_link_5.m;

END Configuration File: examples/ecc_mesh88_config_1_0.550_link_5
7
Received nack credit for flit 4685
Requeued flit 4685
1
Received nack credit for flit 16838
Requeued flit 16838
5
Received nack credit for flit 30960
Requeued flit 30960
3
Received nack credit for flit 32548
Requeued flit 32548
1
Received nack credit for flit 72418
Requeued flit 72418
2
Received nack credit for flit 90838
Requeued flit 90838
1
Received nack credit for flit 112764
Requeued flit 112764
1
Received nack credit for flit 137527
Requeued flit 137527
1
Received nack credit for flit 137842
Requeued flit 137842
5
Received nack credit for flit 129835
Requeued flit 129835
3
Received nack credit for flit 148531
Requeued flit 148531
3
Received nack credit for flit 142546
Requeued flit 142546
6
1
Received nack credit for flit 146611
Requeued flit 146611
Received nack credit for flit 155363
Requeued flit 155363
9
Received nack credit for flit 141870
Requeued flit 141870
3
Received nack credit for flit 186817
Requeued flit 186817
2
Received nack credit for flit 189470
Requeued flit 189470
4
Received nack credit for flit 175107
Requeued flit 175107
1
Received nack credit for flit 211929
Requeued flit 211929
2
Received nack credit for flit 274706
Requeued flit 274706
3
Received nack credit for flit 304835
Requeued flit 304835
6
Received nack credit for flit 294003
Requeued flit 294003
5
Received nack credit for flit 293567
Requeued flit 293567
Class 0:
Packet latency average = 361.86
	minimum = 5
	maximum = 1788
Network latency average = 361.86
	minimum = 5
	maximum = 1788
Slowest packet = 287711
Flit latency average = 361.86
	minimum = 5
	maximum = 1788
Slowest flit = 287711
Fragmentation average = 0
	minimum = 0
	maximum = 0
Injected packet rate average = 0.548902
	minimum = 0.5319 (at node 27)
	maximum = 0.5672 (at node 59)
Accepted packet rate average = 0.509212
	minimum = 0.4936 (at node 21)
	maximum = 0.525 (at node 14)
Injected flit rate average = 0.548902
	minimum = 0.5319 (at node 27)
	maximum = 0.5672 (at node 59)
Accepted flit rate average= 0.509212
	minimum = 0.4936 (at node 21)
	maximum = 0.525 (at node 14)
Injected packet length average = 1
Accepted packet length average = 1
Total in-flight flits = 25401 (0 measured)
latency change    = 1
throughput change = 1
1
Received nack credit for flit 353490
Requeued flit 353490
1
Received nack credit for flit 380103
Requeued flit 380103
1
Received nack credit for flit 392143
Requeued flit 392143
5
Received nack credit for flit 368935
Requeued flit 368935
3
Received nack credit for flit 408884
Requeued flit 408884
6
Received nack credit for flit 373838
Requeued flit 373838
3
Received nack credit for flit 404335
Requeued flit 404335
1
Received nack credit for flit 429610
Requeued flit 429610
3
Received nack credit for flit 410887
Requeued flit 410887
1
Received nack credit for flit 432235
Requeued flit 432235
1
Received nack credit for flit 493079
Requeued flit 493079
4
Received nack credit for flit 474723
Requeued flit 474723
4
Received nack credit for flit 467900
Requeued flit 467900
4
Received nack credit for flit 513186
Requeued flit 513186
1
Received nack credit for flit 595387
Requeued flit 595387
3
Received nack credit for flit 580824
Requeued flit 580824
5
Received nack credit for flit 583880
Requeued flit 583880
5
Received nack credit for flit 628972
Requeued flit 628972
Class 0:
Packet latency average = 720.808
	minimum = 5
	maximum = 4322
Network latency average = 720.195
	minimum = 5
	maximum = 4322
Slowest packet = 546890
Flit latency average = 720.195
	minimum = 5
	maximum = 4322
Slowest flit = 546890
Fragmentation average = 0
	minimum = 0
	maximum = 0
Injected packet rate average = 0.546636
	minimum = 0.53035 (at node 57)
	maximum = 0.55615 (at node 8)
Accepted packet rate average = 0.506092
	minimum = 0.49315 (at node 36)
	maximum = 0.5188 (at node 57)
Injected flit rate average = 0.546636
	minimum = 0.53035 (at node 57)
	maximum = 0.55615 (at node 8)
Accepted flit rate average= 0.506092
	minimum = 0.49315 (at node 36)
	maximum = 0.5188 (at node 57)
Injected packet length average = 1
Accepted packet length average = 1
Total in-flight flits = 51906 (0 measured)
latency change    = 0.49798
throughput change = 0.0061655
Average latency for class 0 exceeded 500 cycles. Aborting simulation.
Too many sample periods needed to converge
Simulation unstable, ending ...
Total run time 82.6983
