BEGIN Configuration File: examples/ecc_mesh88_config_1_0.600_link_3
// $Id$

// Copyright (c) 2007-2015, Trustees of The Leland Stanford Junior University
// All rights reserved.
//
// Redistribution and use in source and binary forms, with or without
// modification, are permitted provided that the following conditions are met:
//
// Redistributions of source code must retain the above copyright notice, this
// list of conditions and the following disclaimer.
// Redistributions in binary form must reproduce the above copyright notice,
// this list of conditions and the following disclaimer in the documentation
// and/or other materials provided with the distribution.
//
// THIS SOFTWARE IS PROVIDED BY THE COPYRIGHT HOLDERS AND CONTRIBUTORS "AS IS"
// AND ANY EXPRESS OR IMPLIED WARRANTIES, INCLUDING, BUT NOT LIMITED TO, THE
// IMPLIED WARRANTIES OF MERCHANTABILITY AND FITNESS FOR A PARTICULAR PURPOSE
// ARE DISCLAIMED. IN NO EVENT SHALL THE COPYRIGHT OWNER OR CONTRIBUTORS BE
// LIABLE FOR ANY DIRECT, INDIRECT, INCIDENTAL, SPECIAL, EXEMPLARY, OR
// CONSEQUENTIAL DAMAGES (INCLUDING, BUT NOT LIMITED TO, PROCUREMENT OF
// SUBSTITUTE GOODS OR SERVICES; LOSS OF USE, DATA, OR PROFITS; OR BUSINESS
// INTERRUPTION) HOWEVER CAUSED AND ON ANY THEORY OF LIABILITY, WHETHER IN
// CONTRACT, STRICT LIABILITY, OR TORT (INCLUDING NEGLIGENCE OR OTHERWISE)
// ARISING IN ANY WAY OUT OF THE USE OF THIS SOFTWARE, EVEN IF ADVISED OF THE
// POSSIBILITY OF SUCH DAMAGE.

// Dragonfly
//




vc_buf_size = 256;


wait_for_tail_credit = 0;

//
// Router architecture
//
vc_allocator = separable_input_first; 
sw_allocator = separable_input_first;
alloc_iters  = 1;

credit_delay   = 2;
routing_delay  = 0;
vc_alloc_delay = 1;
sw_alloc_delay = 1;
st_final_delay = 1;

input_speedup     = 1;
output_speedup    = 1;
internal_speedup  = 2.0;


warmup_periods = 3;
sim_count          = 1;

sample_period  = 10000;  


routing_function = dor;
num_vcs     = 2;

priority = none;
traffic       = uniform; 

injection_rate = 0.6;
packet_size = 1;
injection_rate_uses_flits = 1;

topology = mesh;

k  = 8;
n  = 2;

fer = 3;
ecc = link;

watch_out=-;
//watch_file = watch.txt;

ecc = link;

stats_out = examples/ecc_mesh88_config_1_0.600_link_3.m;

END Configuration File: examples/ecc_mesh88_config_1_0.600_link_3
1
Received nack credit for flit 168
Requeued flit 168
2
1
Received nack credit for flit 554
Requeued flit 554
Received nack credit for flit 835
Requeued flit 835
1
4
5
Received nack credit for flit 761
Requeued flit 761
2
Received nack credit for flit 536
Requeued flit 536
Received nack credit for flit 1181
Requeued flit 1181
14
Received nack credit for flit 1194
Requeued flit 1194
7
Received nack credit for flit 373
Requeued flit 373
Received nack credit for flit 105
Requeued flit 105
5
3
2
2
Received nack credit for flit 1245
Requeued flit 1245
5
Received nack credit for flit 1911
Requeued flit 1911
Received nack credit for flit 2077
Requeued flit 2077
Received nack credit for flit 2199
Requeued flit 2199
Received nack credit for flit 1677
Requeued flit 1677
6
Received nack credit for flit 1777
Requeued flit 1777
7
1
6
Received nack credit for flit 2972
Requeued flit 2972
Received nack credit for flit 1797
Requeued flit 1797
Received nack credit for flit 2019
Requeued flit 2019
1
3
Received nack credit for flit 3598
Requeued flit 3598
Received nack credit for flit 3058
Requeued flit 3058
1
Received nack credit for flit 3887
Requeued flit 3887
1
1
1
Received nack credit for flit 4339
Requeued flit 4339
Received nack credit for flit 4022
Requeued flit 4022
Received nack credit for flit 4505
Requeued flit 4505
1
3
4
Received nack credit for flit 4765
Requeued flit 4765
Received nack credit for flit 3564
Requeued flit 3564
Received nack credit for flit 3524
Requeued flit 3524
7
1
Received nack credit for flit 3432
Requeued flit 3432
Received nack credit for flit 5434
Requeued flit 5434
9
Received nack credit for flit 2755
Requeued flit 2755
6
4
Received nack credit for flit 4437
Requeued flit 4437
Received nack credit for flit 5050
Requeued flit 5050
2
11
7
4
Received nack credit for flit 6500
Requeued flit 6500
Received nack credit for flit 5016
Requeued flit 5016
Received nack credit for flit 3088
Requeued flit 3088
Received nack credit for flit 5410
Requeued flit 5410
1
1
Received nack credit for flit 7167
Requeued flit 7167
Received nack credit for flit 6432
Requeued flit 6432
3
Received nack credit for flit 6984
Requeued flit 6984
2
Received nack credit for flit 8247
Requeued flit 8247
6
1
Received nack credit for flit 5446
Requeued flit 5446
Received nack credit for flit 8722
Requeued flit 8722
2
Received nack credit for flit 7767
Requeued flit 7767
6
3
1
Received nack credit for flit 6254
Requeued flit 6254
Received nack credit for flit 8102
Requeued flit 8102
4
1
2
Received nack credit for flit 9926
Requeued flit 9926
Received nack credit for flit 7463
Requeued flit 7463
Received nack credit for flit 9999
Requeued flit 9999
Received nack credit for flit 9726
Requeued flit 9726
5
1
Received nack credit for flit 9415
Requeued flit 9415
5
Received nack credit for flit 10660
Requeued flit 10660
Received nack credit for flit 9176
Requeued flit 9176
1
1
7
3
Received nack credit for flit 10941
Requeued flit 10941
Received nack credit for flit 10704
Requeued flit 10704
Received nack credit for flit 7296
Requeued flit 7296
Received nack credit for flit 9222
Requeued flit 9222
1
Received nack credit for flit 11284
Requeued flit 11284
4
4
Received nack credit for flit 11302
Requeued flit 11302
Received nack credit for flit 10206
Requeued flit 10206
5
2
Received nack credit for flit 9339
Requeued flit 9339
2
Received nack credit for flit 10866
Requeued flit 10866
Received nack credit for flit 12104
Requeued flit 12104
1
1
Received nack credit for flit 11528
Requeued flit 11528
Received nack credit for flit 12753
Requeued flit 12753
1
5
Received nack credit for flit 13079
Requeued flit 13079
Received nack credit for flit 10459
Requeued flit 10459
1
1
5
Received nack credit for flit 13222
Requeued flit 13222
Received nack credit for flit 13568
Requeued flit 13568
Received nack credit for flit 11074
Requeued flit 11074
7
Received nack credit for flit 9500
Requeued flit 9500
6
3
Received nack credit for flit 11013
Requeued flit 11013
8
Received nack credit for flit 12101
Requeued flit 12101
1
Received nack credit for flit 11623
Requeued flit 11623
Received nack credit for flit 14460
Requeued flit 14460
7
Received nack credit for flit 11133
Requeued flit 11133
3
3
4
7
Received nack credit for flit 13526
Requeued flit 13526
Received nack credit for flit 13900
Requeued flit 13900
1
Received nack credit for flit 13065
Requeued flit 13065
Received nack credit for flit 11779
Requeued flit 11779
Received nack credit for flit 15235
Requeued flit 15235
5
Received nack credit for flit 11603
Requeued flit 11603
4
3
Received nack credit for flit 15001
Requeued flit 15001
Received nack credit for flit 13461
Requeued flit 13461
1
3
Received nack credit for flit 14628
Requeued flit 14628
2
Received nack credit for flit 15740
Requeued flit 15740
1
9
Received nack credit for flit 16584
Requeued flit 16584
Received nack credit for flit 16297
Requeued flit 16297
Received nack credit for flit 8997
Requeued flit 8997
1
4
1
1
1
Received nack credit for flit 16968
Requeued flit 16968
Received nack credit for flit 14098
Requeued flit 14098
Received nack credit for flit 17148
Requeued flit 17148
11
1
Received nack credit for flit 17209
Requeued flit 17209
Received nack credit for flit 17183
Requeued flit 17183
2
9
Received nack credit for flit 11039
Requeued flit 11039
Received nack credit for flit 17431
Requeued flit 17431
Received nack credit for flit 13159
Requeued flit 13159
Received nack credit for flit 15572
Requeued flit 15572
1
5
Received nack credit for flit 15822
Requeued flit 15822
5
Received nack credit for flit 16240
Requeued flit 16240
2
Received nack credit for flit 17869
Requeued flit 17869
Received nack credit for flit 13847
Requeued flit 13847
3
5
5
Received nack credit for flit 14697
Requeued flit 14697
1
2
3
Received nack credit for flit 14658
Requeued flit 14658
Received nack credit for flit 15695
Requeued flit 15695
Received nack credit for flit 17422
Requeued flit 17422
Received nack credit for flit 13791
Requeued flit 13791
Received nack credit for flit 18287
Requeued flit 18287
2
4
1
Received nack credit for flit 17403
Requeued flit 17403
Received nack credit for flit 16168
Requeued flit 16168
Received nack credit for flit 19070
Requeued flit 19070
2
6
Received nack credit for flit 19350
Requeued flit 19350
Received nack credit for flit 15660
Requeued flit 15660
1
4
Received nack credit for flit 19774
Requeued flit 19774
Received nack credit for flit 15825
Requeued flit 15825
5
1
Received nack credit for flit 15984
Requeued flit 15984
5
Received nack credit for flit 17421
Requeued flit 17421
Received nack credit for flit 20275
Requeued flit 20275
1
3
5
Received nack credit for flit 20902
Requeued flit 20902
Received nack credit for flit 20595
Requeued flit 20595
1
Received nack credit for flit 16822
Requeued flit 16822
5
Received nack credit for flit 21205
Requeued flit 21205
4
5
1
Received nack credit for flit 14743
Requeued flit 14743
Received nack credit for flit 16912
Requeued flit 16912
Received nack credit for flit 17142
Requeued flit 17142
4
2
Received nack credit for flit 21467
Requeued flit 21467
Received nack credit for flit 19609
Requeued flit 19609
Received nack credit for flit 21414
Requeued flit 21414
3
Received nack credit for flit 18619
Requeued flit 18619
4
Received nack credit for flit 19796
Requeued flit 19796
2
Received nack credit for flit 20730
Requeued flit 20730
1
Received nack credit for flit 24107
Requeued flit 24107
6
7
1
1
Received nack credit for flit 16916
Requeued flit 16916
3
1
Received nack credit for flit 24476
Requeued flit 24476
Received nack credit for flit 18344
Requeued flit 18344
2
Received nack credit for flit 24391
Requeued flit 24391
1
Received nack credit for flit 24592
Requeued flit 24592
Received nack credit for flit 24340
Requeued flit 24340
Received nack credit for flit 24351
Requeued flit 24351
Received nack credit for flit 22234
Requeued flit 22234
4
4
Received nack credit for flit 19935
Requeued flit 19935
1
Received nack credit for flit 22279
Requeued flit 22279
2
Received nack credit for flit 25553
Requeued flit 25553
Received nack credit for flit 23126
Requeued flit 23126
6
Received nack credit for flit 22914
Requeued flit 22914
1
Received nack credit for flit 23383
Requeued flit 23383
1
2
2
Received nack credit for flit 26166
Requeued flit 26166
3
Received nack credit for flit 23211
Requeued flit 23211
Received nack credit for flit 26462
Requeued flit 26462
Received nack credit for flit 26415
Requeued flit 26415
1
2
1
7
1
7
2
Received nack credit for flit 20717
Requeued flit 20717
3
Received nack credit for flit 27065
Requeued flit 27065
Received nack credit for flit 27133
Requeued flit 27133
Received nack credit for flit 19572
Requeued flit 19572
Received nack credit for flit 24700
Requeued flit 24700
Received nack credit for flit 27198
Requeued flit 27198
Received nack credit for flit 27082
Requeued flit 27082
4
Received nack credit for flit 21769
Requeued flit 21769
Received nack credit for flit 23185
Requeued flit 23185
6
1
1
Received nack credit for flit 21942
Requeued flit 21942
3
Received nack credit for flit 27976
Requeued flit 27976
Received nack credit for flit 28061
Requeued flit 28061
Received nack credit for flit 27704
Requeued flit 27704
2
1
Received nack credit for flit 28229
Requeued flit 28229
Received nack credit for flit 28547
Requeued flit 28547
2
4
Received nack credit for flit 26065
Requeued flit 26065
Received nack credit for flit 21851
Requeued flit 21851
2
1
5
2
2
Received nack credit for flit 29064
Requeued flit 29064
Received nack credit for flit 29636
Requeued flit 29636
1
Received nack credit for flit 25426
Requeued flit 25426
1
Received nack credit for flit 26188
Requeued flit 26188
Received nack credit for flit 27187
Requeued flit 27187
Received nack credit for flit 29865
Requeued flit 29865
Received nack credit for flit 29963
Requeued flit 29963
5
5
Received nack credit for flit 24171
Requeued flit 24171
2
Received nack credit for flit 24455
Requeued flit 24455
4
1
Received nack credit for flit 27691
Requeued flit 27691
1
Received nack credit for flit 30282
Requeued flit 30282
Received nack credit for flit 30467
Requeued flit 30467
7
Received nack credit for flit 30590
Requeued flit 30590
5
Received nack credit for flit 25169
Requeued flit 25169
Received nack credit for flit 24579
Requeued flit 24579
5
Received nack credit for flit 23518
Requeued flit 23518
1
1
Received nack credit for flit 31894
Requeued flit 31894
Received nack credit for flit 31984
Requeued flit 31984
6
6
Received nack credit for flit 25720
Requeued flit 25720
6
Received nack credit for flit 27240
Requeued flit 27240
4
Received nack credit for flit 28836
Requeued flit 28836
Received nack credit for flit 26623
Requeued flit 26623
4
1
1
Received nack credit for flit 27471
Requeued flit 27471
Received nack credit for flit 30563
Requeued flit 30563
7
Received nack credit for flit 33130
Requeued flit 33130
4
2
Received nack credit for flit 25953
Requeued flit 25953
2
Received nack credit for flit 27222
Requeued flit 27222
1
Received nack credit for flit 33233
Requeued flit 33233
Received nack credit for flit 33295
Requeued flit 33295
Received nack credit for flit 30008
Requeued flit 30008
1
Received nack credit for flit 30268
Requeued flit 30268
3
4
Received nack credit for flit 32849
Requeued flit 32849
Received nack credit for flit 27723
Requeued flit 27723
5
2
Received nack credit for flit 27268
Requeued flit 27268
1
Received nack credit for flit 31008
Requeued flit 31008
Received nack credit for flit 35290
Requeued flit 35290
3
Received nack credit for flit 28852
Requeued flit 28852
7
3
4
Received nack credit for flit 30908
Requeued flit 30908
6
Received nack credit for flit 29989
Requeued flit 29989
Received nack credit for flit 34727
Requeued flit 34727
Received nack credit for flit 31888
Requeued flit 31888
1
1
Received nack credit for flit 36320
Requeued flit 36320
Received nack credit for flit 33436
Requeued flit 33436
1
5
Received nack credit for flit 36650
Requeued flit 36650
1
Received nack credit for flit 30553
Requeued flit 30553
Received nack credit for flit 37065
Requeued flit 37065
5
2
9
Received nack credit for flit 26796
Requeued flit 26796
Received nack credit for flit 26315
Requeued flit 26315
Received nack credit for flit 31229
Requeued flit 31229
1
3
Received nack credit for flit 37876
Requeued flit 37876
Received nack credit for flit 30434
Requeued flit 30434
3
Received nack credit for flit 34285
Requeued flit 34285
1
2
2
Received nack credit for flit 39360
Requeued flit 39360
Received nack credit for flit 39266
Requeued flit 39266
Received nack credit for flit 39214
Requeued flit 39214
3
6
Received nack credit for flit 32199
Requeued flit 32199
Received nack credit for flit 31844
Requeued flit 31844
3
2
2
1
Received nack credit for flit 35369
Requeued flit 35369
Received nack credit for flit 34120
Requeued flit 34120
Received nack credit for flit 39579
Requeued flit 39579
Received nack credit for flit 39983
Requeued flit 39983
4
Received nack credit for flit 34612
Requeued flit 34612
1
Received nack credit for flit 41009
Requeued flit 41009
4
Received nack credit for flit 39873
Requeued flit 39873
9
Received nack credit for flit 34350
Requeued flit 34350
2
Received nack credit for flit 36784
Requeued flit 36784
6
8
Received nack credit for flit 36741
Requeued flit 36741
Received nack credit for flit 29799
Requeued flit 29799
1
4
Received nack credit for flit 36871
Requeued flit 36871
1
8
Received nack credit for flit 36754
Requeued flit 36754
Received nack credit for flit 43212
Requeued flit 43212
Received nack credit for flit 34559
Requeued flit 34559
10
4
Received nack credit for flit 32258
Requeued flit 32258
3
Received nack credit for flit 42457
Requeued flit 42457
2
Received nack credit for flit 43945
Requeued flit 43945
1
1
3
Received nack credit for flit 44210
Requeued flit 44210
Received nack credit for flit 44524
Requeued flit 44524
Received nack credit for flit 40596
Requeued flit 40596
Received nack credit for flit 38910
Requeued flit 38910
5
3
5
5
Received nack credit for flit 36509
Requeued flit 36509
3
Received nack credit for flit 39668
Requeued flit 39668
Received nack credit for flit 39280
Requeued flit 39280
Received nack credit for flit 39653
Requeued flit 39653
Received nack credit for flit 41226
Requeued flit 41226
3
2
Received nack credit for flit 45398
Requeued flit 45398
Received nack credit for flit 41406
Requeued flit 41406
1
1
3
6
Received nack credit for flit 46052
Requeued flit 46052
1
Received nack credit for flit 46218
Requeued flit 46218
Received nack credit for flit 41484
Requeued flit 41484
Received nack credit for flit 37993
Requeued flit 37993
Received nack credit for flit 41871
Requeued flit 41871
1
6
Received nack credit for flit 38266
Requeued flit 38266
Received nack credit for flit 46570
Requeued flit 46570
2
2
Received nack credit for flit 40271
Requeued flit 40271
Received nack credit for flit 46904
Requeued flit 46904
1
1
Received nack credit for flit 42905
Requeued flit 42905
9
1
9
Received nack credit for flit 47879
Requeued flit 47879
1
2
2
Received nack credit for flit 45141
Requeued flit 45141
Received nack credit for flit 33038
Requeued flit 33038
Received nack credit for flit 37196
Requeued flit 37196
2
Received nack credit for flit 41070
Requeued flit 41070
Received nack credit for flit 43804
Requeued flit 43804
Received nack credit for flit 43726
Requeued flit 43726
6
Received nack credit for flit 48130
Requeued flit 48130
Received nack credit for flit 42573
Requeued flit 42573
2
5
2
2
4
Received nack credit for flit 39785
Requeued flit 39785
Received nack credit for flit 48539
Requeued flit 48539
2
Received nack credit for flit 39097
Requeued flit 39097
Received nack credit for flit 37241
Requeued flit 37241
Received nack credit for flit 42879
Requeued flit 42879
1
Received nack credit for flit 44912
Requeued flit 44912
6
5
Received nack credit for flit 38779
Requeued flit 38779
1
Received nack credit for flit 49163
Requeued flit 49163
Received nack credit for flit 43134
Requeued flit 43134
Received nack credit for flit 49435
Requeued flit 49435
3
2
Received nack credit for flit 45340
Requeued flit 45340
Received nack credit for flit 40119
Requeued flit 40119
2
Received nack credit for flit 50107
Requeued flit 50107
1
Received nack credit for flit 50718
Requeued flit 50718
2
4
Received nack credit for flit 45185
Requeued flit 45185
Received nack credit for flit 46753
Requeued flit 46753
1
8
Received nack credit for flit 51469
Requeued flit 51469
1
6
Received nack credit for flit 40278
Requeued flit 40278
Received nack credit for flit 45980
Requeued flit 45980
Received nack credit for flit 44561
Requeued flit 44561
1
3
Received nack credit for flit 52100
Requeued flit 52100
Received nack credit for flit 38839
Requeued flit 38839
5
1
Received nack credit for flit 52306
Requeued flit 52306
Received nack credit for flit 41955
Requeued flit 41955
1
3
5
Received nack credit for flit 46596
Requeued flit 46596
Received nack credit for flit 44350
Requeued flit 44350
Received nack credit for flit 52680
Requeued flit 52680
1
1
1
1
1
Received nack credit for flit 53292
Requeued flit 53292
Received nack credit for flit 50158
Requeued flit 50158
5
Received nack credit for flit 47118
Requeued flit 47118
Received nack credit for flit 53124
Requeued flit 53124
Received nack credit for flit 53326
Requeued flit 53326
8
Received nack credit for flit 46722
Requeued flit 46722
4
Received nack credit for flit 39654
Requeued flit 39654
3
Received nack credit for flit 43855
Requeued flit 43855
2
Received nack credit for flit 43548
Requeued flit 43548
Received nack credit for flit 53857
Requeued flit 53857
1
2
Received nack credit for flit 54425
Requeued flit 54425
1
5
Received nack credit for flit 49211
Requeued flit 49211
Received nack credit for flit 54719
Requeued flit 54719
Received nack credit for flit 42438
Requeued flit 42438
2
Received nack credit for flit 47058
Requeued flit 47058
1
4
1
Received nack credit for flit 55227
Requeued flit 55227
1
Received nack credit for flit 46139
Requeued flit 46139
4
Received nack credit for flit 55622
Requeued flit 55622
4
Received nack credit for flit 55675
Requeued flit 55675
12
3
Received nack credit for flit 43120
Requeued flit 43120
1
Received nack credit for flit 51540
Requeued flit 51540
1
Received nack credit for flit 35288
Requeued flit 35288
Received nack credit for flit 55448
Requeued flit 55448
2
Received nack credit for flit 50899
Requeued flit 50899
4
1
Received nack credit for flit 55836
Requeued flit 55836
Received nack credit for flit 55961
Requeued flit 55961
Received nack credit for flit 54678
Requeued flit 54678
Received nack credit for flit 56262
Requeued flit 56262
9
1
Received nack credit for flit 39835
Requeued flit 39835
1
7
6
Received nack credit for flit 56643
Requeued flit 56643
5
Received nack credit for flit 50216
Requeued flit 50216
Received nack credit for flit 56864
Requeued flit 56864
Received nack credit for flit 47804
Requeued flit 47804
2
Received nack credit for flit 43915
Requeued flit 43915
Received nack credit for flit 50737
Requeued flit 50737
4
1
Received nack credit for flit 49985
Requeued flit 49985
1
Received nack credit for flit 57427
Requeued flit 57427
5
2
Received nack credit for flit 57531
Requeued flit 57531
Received nack credit for flit 46150
Requeued flit 46150
Received nack credit for flit 51844
Requeued flit 51844
5
4
3
Received nack credit for flit 48665
Requeued flit 48665
2
4
Received nack credit for flit 52122
Requeued flit 52122
Received nack credit for flit 56373
Requeued flit 56373
Received nack credit for flit 47722
Requeued flit 47722
Received nack credit for flit 58164
Requeued flit 58164
9
1
3
Received nack credit for flit 41659
Requeued flit 41659
Received nack credit for flit 58669
Requeued flit 58669
Received nack credit for flit 51752
Requeued flit 51752
1
1
Received nack credit for flit 53602
Requeued flit 53602
Received nack credit for flit 59266
Requeued flit 59266
1
1
6
Received nack credit for flit 59549
Requeued flit 59549
Received nack credit for flit 59583
Requeued flit 59583
5
Received nack credit for flit 48061
Requeued flit 48061
1
6
7
3
Received nack credit for flit 53721
Requeued flit 53721
Received nack credit for flit 48092
Requeued flit 48092
6
Received nack credit for flit 59889
Requeued flit 59889
Received nack credit for flit 48165
Requeued flit 48165
Received nack credit for flit 48526
Requeued flit 48526
Received nack credit for flit 49625
Requeued flit 49625
4
1
4
2
7
7
Received nack credit for flit 57188
Requeued flit 57188
Received nack credit for flit 57746
Requeued flit 57746
Received nack credit for flit 58482
Requeued flit 58482
Received nack credit for flit 49738
Requeued flit 49738
Received nack credit for flit 53200
Requeued flit 53200
Received nack credit for flit 46480
Requeued flit 46480
3
Received nack credit for flit 60683
Requeued flit 60683
1
2
Received nack credit for flit 61309
Requeued flit 61309
1
Received nack credit for flit 56639
Requeued flit 56639
4
Received nack credit for flit 61617
Requeued flit 61617
Received nack credit for flit 47857
Requeued flit 47857
3
3
5
3
Received nack credit for flit 52583
Requeued flit 52583
Received nack credit for flit 48434
Requeued flit 48434
Received nack credit for flit 46056
Requeued flit 46056
Received nack credit for flit 56485
Requeued flit 56485
7
4
Received nack credit for flit 50483
Requeued flit 50483
1
Received nack credit for flit 56656
Requeued flit 56656
1
Received nack credit for flit 62572
Requeued flit 62572
Received nack credit for flit 62680
Requeued flit 62680
6
2
3
Received nack credit for flit 47005
Requeued flit 47005
Received nack credit for flit 57863
Requeued flit 57863
Received nack credit for flit 57165
Requeued flit 57165
1
Received nack credit for flit 63661
Requeued flit 63661
3
Received nack credit for flit 52427
Requeued flit 52427
4
Received nack credit for flit 54669
Requeued flit 54669
6
3
1
Received nack credit for flit 58452
Requeued flit 58452
Received nack credit for flit 52612
Requeued flit 52612
1
Received nack credit for flit 65754
Requeued flit 65754
2
Received nack credit for flit 65882
Requeued flit 65882
Received nack credit for flit 59991
Requeued flit 59991
4
3
Received nack credit for flit 65881
Requeued flit 65881
Received nack credit for flit 61182
Requeued flit 61182
3
Received nack credit for flit 62363
Requeued flit 62363
5
Received nack credit for flit 51538
Requeued flit 51538
5
1
1
1
Received nack credit for flit 55304
Requeued flit 55304
Received nack credit for flit 61573
Requeued flit 61573
Received nack credit for flit 61698
Requeued flit 61698
3
Received nack credit for flit 54963
Requeued flit 54963
6
5
Received nack credit for flit 53478
Requeued flit 53478
1
4
1
Received nack credit for flit 53477
Requeued flit 53477
Received nack credit for flit 68611
Requeued flit 68611
Received nack credit for flit 63859
Requeued flit 63859
3
Received nack credit for flit 63863
Requeued flit 63863
1
2
Received nack credit for flit 55345
Requeued flit 55345
1
Received nack credit for flit 60755
Requeued flit 60755
2
Received nack credit for flit 68205
Requeued flit 68205
5
Received nack credit for flit 68934
Requeued flit 68934
Received nack credit for flit 69094
Requeued flit 69094
2
Received nack credit for flit 62069
Requeued flit 62069
2
Received nack credit for flit 68934
Requeued flit 68934
Received nack credit for flit 62628
Requeued flit 62628
1
1
1
4
Received nack credit for flit 69826
Requeued flit 69826
Received nack credit for flit 69799
Requeued flit 69799
1
Received nack credit for flit 64464
Requeued flit 64464
Received nack credit for flit 56793
Requeued flit 56793
2
Received nack credit for flit 70004
Requeued flit 70004
10
Received nack credit for flit 69626
Requeued flit 69626
2
Received nack credit for flit 48502
Requeued flit 48502
2
Received nack credit for flit 68270
Requeued flit 68270
5
Received nack credit for flit 70683
Requeued flit 70683
Received nack credit for flit 56596
Requeued flit 56596
1
5
Received nack credit for flit 60836
Requeued flit 60836
Received nack credit for flit 57503
Requeued flit 57503
6
Received nack credit for flit 52663
Requeued flit 52663
7
1
2
Received nack credit for flit 52786
Requeued flit 52786
Received nack credit for flit 70377
Requeued flit 70377
Received nack credit for flit 71915
Requeued flit 71915
4
3
Received nack credit for flit 62901
Requeued flit 62901
Received nack credit for flit 55944
Requeued flit 55944
3
6
Received nack credit for flit 67350
Requeued flit 67350
Received nack credit for flit 59106
Requeued flit 59106
2
4
Received nack credit for flit 74365
Requeued flit 74365
Received nack credit for flit 58336
Requeued flit 58336
3
1
1
Received nack credit for flit 65205
Requeued flit 65205
Received nack credit for flit 74923
Requeued flit 74923
Received nack credit for flit 75155
Requeued flit 75155
3
2
2
Received nack credit for flit 59972
Requeued flit 59972
Received nack credit for flit 67950
Requeued flit 67950
Received nack credit for flit 75155
Requeued flit 75155
3
3
Received nack credit for flit 61730
Requeued flit 61730
Received nack credit for flit 75746
Requeued flit 75746
2
2
4
1
Received nack credit for flit 76551
Requeued flit 76551
Received nack credit for flit 76685
Requeued flit 76685
Received nack credit for flit 60150
Requeued flit 60150
Received nack credit for flit 76838
Requeued flit 76838
5
1
1
Received nack credit for flit 63136
Requeued flit 63136
Received nack credit for flit 77330
Requeued flit 77330
2
6
Received nack credit for flit 77418
Requeued flit 77418
Received nack credit for flit 77474
Requeued flit 77474
Received nack credit for flit 69564
Requeued flit 69564
1
Received nack credit for flit 73535
Requeued flit 73535
3
Received nack credit for flit 63712
Requeued flit 63712
4
Received nack credit for flit 62815
Requeued flit 62815
4
Received nack credit for flit 63551
Requeued flit 63551
1
1
Received nack credit for flit 79072
Requeued flit 79072
Received nack credit for flit 71243
Requeued flit 71243
2
3
Received nack credit for flit 72442
Requeued flit 72442
Received nack credit for flit 69003
Requeued flit 69003
4
Received nack credit for flit 69869
Requeued flit 69869
1
Received nack credit for flit 79866
Requeued flit 79866
2
5
Received nack credit for flit 69959
Requeued flit 69959
Received nack credit for flit 69350
Requeued flit 69350
1
1
Received nack credit for flit 80542
Requeued flit 80542
Received nack credit for flit 71059
Requeued flit 71059
1
5
Received nack credit for flit 71495
Requeued flit 71495
Received nack credit for flit 64562
Requeued flit 64562
3
1
2
Received nack credit for flit 67881
Requeued flit 67881
2
Received nack credit for flit 82159
Requeued flit 82159
Received nack credit for flit 67086
Requeued flit 67086
1
Received nack credit for flit 79348
Requeued flit 79348
2
Received nack credit for flit 82382
Requeued flit 82382
Received nack credit for flit 82373
Requeued flit 82373
6
Received nack credit for flit 69760
Requeued flit 69760
2
2
1
Received nack credit for flit 76073
Requeued flit 76073
Received nack credit for flit 83215
Requeued flit 83215
7
Received nack credit for flit 83873
Requeued flit 83873
Received nack credit for flit 65490
Requeued flit 65490
5
5
4
Received nack credit for flit 66786
Requeued flit 66786
Received nack credit for flit 75475
Requeued flit 75475
Received nack credit for flit 72516
Requeued flit 72516
1
4
2
6
1
10
Received nack credit for flit 84572
Requeued flit 84572
Received nack credit for flit 84268
Requeued flit 84268
Received nack credit for flit 67219
Requeued flit 67219
Received nack credit for flit 68323
Requeued flit 68323
Received nack credit for flit 81467
Requeued flit 81467
Received nack credit for flit 60228
Requeued flit 60228
4
5
2
Received nack credit for flit 80210
Requeued flit 80210
Received nack credit for flit 66646
Requeued flit 66646
Received nack credit for flit 77898
Requeued flit 77898
1
1
Received nack credit for flit 85144
Requeued flit 85144
Received nack credit for flit 85359
Requeued flit 85359
1
Received nack credit for flit 85704
Requeued flit 85704
1
7
2
Received nack credit for flit 68817
Requeued flit 68817
Received nack credit for flit 86025
Requeued flit 86025
Received nack credit for flit 85910
Requeued flit 85910
1
Received nack credit for flit 75820
Requeued flit 75820
2
Received nack credit for flit 86392
Requeued flit 86392
2
Received nack credit for flit 86795
Requeued flit 86795
1
5
Received nack credit for flit 85519
Requeued flit 85519
3
11
Received nack credit for flit 80144
Requeued flit 80144
Received nack credit for flit 81085
Requeued flit 81085
2
Received nack credit for flit 64725
Requeued flit 64725
3
3
Received nack credit for flit 76996
Requeued flit 76996
1
Received nack credit for flit 80169
Requeued flit 80169
Received nack credit for flit 87519
Requeued flit 87519
Received nack credit for flit 87690
Requeued flit 87690
1
1
4
Received nack credit for flit 88206
Requeued flit 88206
2
Received nack credit for flit 84265
Requeued flit 84265
Received nack credit for flit 68280
Requeued flit 68280
1
Received nack credit for flit 88361
Requeued flit 88361
Received nack credit for flit 88599
Requeued flit 88599
1
3
Received nack credit for flit 78286
Requeued flit 78286
1
Received nack credit for flit 88682
Requeued flit 88682
Received nack credit for flit 89038
Requeued flit 89038
2
1
4
8
Received nack credit for flit 89132
Requeued flit 89132
Received nack credit for flit 77895
Requeued flit 77895
Received nack credit for flit 89306
Requeued flit 89306
10
5
3
Received nack credit for flit 63403
Requeued flit 63403
Received nack credit for flit 73893
Requeued flit 73893
Received nack credit for flit 79365
Requeued flit 79365
Received nack credit for flit 74163
Requeued flit 74163
4
9
4
Received nack credit for flit 83344
Requeued flit 83344
Received nack credit for flit 81621
Requeued flit 81621
Received nack credit for flit 71121
Requeued flit 71121
4
3
1
Received nack credit for flit 72978
Requeued flit 72978
3
8
Received nack credit for flit 82549
Requeued flit 82549
Received nack credit for flit 91021
Requeued flit 91021
Received nack credit for flit 88280
Requeued flit 88280
5
Received nack credit for flit 64966
Requeued flit 64966
7
Received nack credit for flit 90600
Requeued flit 90600
Received nack credit for flit 64988
Requeued flit 64988
2
1
Received nack credit for flit 91424
Requeued flit 91424
Received nack credit for flit 83220
Requeued flit 83220
10
Received nack credit for flit 70360
Requeued flit 70360
3
1
1
Received nack credit for flit 80505
Requeued flit 80505
Received nack credit for flit 92239
Requeued flit 92239
Received nack credit for flit 92313
Requeued flit 92313
1
2
1
Received nack credit for flit 92759
Requeued flit 92759
Received nack credit for flit 81328
Requeued flit 81328
Received nack credit for flit 92930
Requeued flit 92930
1
5
Received nack credit for flit 85379
Requeued flit 85379
Received nack credit for flit 81843
Requeued flit 81843
1
1
9
Received nack credit for flit 93936
Requeued flit 93936
Received nack credit for flit 67335
Requeued flit 67335
Received nack credit for flit 86826
Requeued flit 86826
1
1
Received nack credit for flit 94579
Requeued flit 94579
Received nack credit for flit 84188
Requeued flit 84188
6
2
Received nack credit for flit 72292
Requeued flit 72292
Received nack credit for flit 95356
Requeued flit 95356
2
3
Received nack credit for flit 95790
Requeued flit 95790
4
Received nack credit for flit 95477
Requeued flit 95477
Received nack credit for flit 95705
Requeued flit 95705
1
5
2
Received nack credit for flit 96383
Requeued flit 96383
Received nack credit for flit 89576
Requeued flit 89576
Received nack credit for flit 78024
Requeued flit 78024
2
1
Received nack credit for flit 88631
Requeued flit 88631
2
4
Received nack credit for flit 96958
Requeued flit 96958
1
Received nack credit for flit 79762
Requeued flit 79762
1
Received nack credit for flit 84835
Requeued flit 84835
2
Received nack credit for flit 97220
Requeued flit 97220
Received nack credit for flit 97292
Requeued flit 97292
Received nack credit for flit 97313
Requeued flit 97313
4
8
Received nack credit for flit 77687
Requeued flit 77687
Received nack credit for flit 89593
Requeued flit 89593
6
Received nack credit for flit 78414
Requeued flit 78414
4
Received nack credit for flit 79019
Requeued flit 79019
4
1
1
Received nack credit for flit 79050
Requeued flit 79050
Received nack credit for flit 87988
Requeued flit 87988
Received nack credit for flit 98577
Requeued flit 98577
3
10
Received nack credit for flit 79486
Requeued flit 79486
1
Received nack credit for flit 73864
Requeued flit 73864
Received nack credit for flit 91020
Requeued flit 91020
1
1
Received nack credit for flit 99258
Requeued flit 99258
Received nack credit for flit 99463
Requeued flit 99463
2
3
Received nack credit for flit 88696
Requeued flit 88696
Received nack credit for flit 90147
Requeued flit 90147
3
Received nack credit for flit 87929
Requeued flit 87929
1
Received nack credit for flit 100245
Requeued flit 100245
1
2
Received nack credit for flit 88230
Requeued flit 88230
5
Received nack credit for flit 91361
Requeued flit 91361
1
Received nack credit for flit 85118
Requeued flit 85118
1
1
Received nack credit for flit 101070
Requeued flit 101070
Received nack credit for flit 89690
Requeued flit 89690
3
Received nack credit for flit 101194
Requeued flit 101194
Received nack credit for flit 96740
Requeued flit 96740
6
6
9
Received nack credit for flit 90712
Requeued flit 90712
Received nack credit for flit 83261
Requeued flit 83261
Received nack credit for flit 71994
Requeued flit 71994
3
2
Received nack credit for flit 92113
Requeued flit 92113
Received nack credit for flit 82687
Requeued flit 82687
7
6
Received nack credit for flit 93866
Requeued flit 93866
4
3
Received nack credit for flit 91497
Requeued flit 91497
Received nack credit for flit 92384
Requeued flit 92384
2
Received nack credit for flit 82185
Requeued flit 82185
Received nack credit for flit 102655
Requeued flit 102655
2
3
2
1
Received nack credit for flit 94390
Requeued flit 94390
Received nack credit for flit 81839
Requeued flit 81839
1
8
Received nack credit for flit 98511
Requeued flit 98511
Received nack credit for flit 103181
Requeued flit 103181
Received nack credit for flit 103204
Requeued flit 103204
Received nack credit for flit 81701
Requeued flit 81701
4
3
Received nack credit for flit 103614
Requeued flit 103614
5
Received nack credit for flit 104067
Requeued flit 104067
1
Received nack credit for flit 85469
Requeued flit 85469
Received nack credit for flit 104497
Requeued flit 104497
1
5
Received nack credit for flit 93493
Requeued flit 93493
9
Received nack credit for flit 83385
Requeued flit 83385
Received nack credit for flit 80610
Requeued flit 80610
1
3
Received nack credit for flit 94283
Requeued flit 94283
Received nack credit for flit 105296
Requeued flit 105296
3
6
4
Received nack credit for flit 86200
Requeued flit 86200
5
4
Received nack credit for flit 87370
Requeued flit 87370
Received nack credit for flit 82882
Requeued flit 82882
5
Received nack credit for flit 103944
Requeued flit 103944
Received nack credit for flit 92700
Requeued flit 92700
1
Received nack credit for flit 92660
Requeued flit 92660
1
2
4
Received nack credit for flit 106474
Requeued flit 106474
Received nack credit for flit 98193
Requeued flit 98193
Received nack credit for flit 96082
Requeued flit 96082
6
1
Received nack credit for flit 99412
Requeued flit 99412
Received nack credit for flit 83663
Requeued flit 83663
Received nack credit for flit 98121
Requeued flit 98121
4
Received nack credit for flit 85505
Requeued flit 85505
4
5
Received nack credit for flit 87028
Requeued flit 87028
2
Received nack credit for flit 86931
Requeued flit 86931
Received nack credit for flit 107424
Requeued flit 107424
3
Received nack credit for flit 89040
Requeued flit 89040
4
Received nack credit for flit 87910
Requeued flit 87910
1
3
1
Received nack credit for flit 109631
Requeued flit 109631
2
2
Received nack credit for flit 109521
Requeued flit 109521
Received nack credit for flit 109836
Requeued flit 109836
Received nack credit for flit 100254
Requeued flit 100254
Received nack credit for flit 100648
Requeued flit 100648
1
5
Received nack credit for flit 89351
Requeued flit 89351
Received nack credit for flit 110188
Requeued flit 110188
2
4
9
1
2
Received nack credit for flit 106763
Requeued flit 106763
Received nack credit for flit 82918
Requeued flit 82918
Received nack credit for flit 111140
Requeued flit 111140
Received nack credit for flit 110835
Requeued flit 110835
Received nack credit for flit 96409
Requeued flit 96409
1
2
Received nack credit for flit 110984
Requeued flit 110984
Received nack credit for flit 111370
Requeued flit 111370
3
Received nack credit for flit 101260
Requeued flit 101260
5
Received nack credit for flit 99616
Requeued flit 99616
3
2
3
Received nack credit for flit 102090
Requeued flit 102090
Received nack credit for flit 100469
Requeued flit 100469
Received nack credit for flit 111792
Requeued flit 111792
1
1
4
9
1
Received nack credit for flit 112706
Requeued flit 112706
6
Received nack credit for flit 108356
Requeued flit 108356
Received nack credit for flit 112765
Requeued flit 112765
Received nack credit for flit 112875
Requeued flit 112875
3
Received nack credit for flit 100357
Requeued flit 100357
Received nack credit for flit 79756
Requeued flit 79756
Received nack credit for flit 100238
Requeued flit 100238
3
Received nack credit for flit 91940
Requeued flit 91940
7
8
Received nack credit for flit 91462
Requeued flit 91462
4
2
Received nack credit for flit 100440
Requeued flit 100440
Received nack credit for flit 91289
Requeued flit 91289
7
Received nack credit for flit 102936
Requeued flit 102936
6
3
Received nack credit for flit 82074
Requeued flit 82074
Received nack credit for flit 94566
Requeued flit 94566
5
7
Received nack credit for flit 102556
Requeued flit 102556
Received nack credit for flit 102056
Requeued flit 102056
Received nack credit for flit 96445
Requeued flit 96445
4
4
Received nack credit for flit 89148
Requeued flit 89148
Received nack credit for flit 92419
Requeued flit 92419
2
3
Received nack credit for flit 114624
Requeued flit 114624
4
Received nack credit for flit 114587
Requeued flit 114587
Received nack credit for flit 100043
Requeued flit 100043
2
Received nack credit for flit 92744
Requeued flit 92744
2
Received nack credit for flit 115932
Requeued flit 115932
4
Received nack credit for flit 94472
Requeued flit 94472
3
Received nack credit for flit 97223
Requeued flit 97223
6
5
1
Received nack credit for flit 95424
Requeued flit 95424
6
3
Received nack credit for flit 117243
Requeued flit 117243
Received nack credit for flit 97293
Requeued flit 97293
Received nack credit for flit 95500
Requeued flit 95500
2
Received nack credit for flit 117038
Requeued flit 117038
Received nack credit for flit 117453
Requeued flit 117453
2
1
3
4
Received nack credit for flit 103310
Requeued flit 103310
Received nack credit for flit 117871
Requeued flit 117871
6
1
Received nack credit for flit 96850
Requeued flit 96850
Received nack credit for flit 104417
Requeued flit 104417
Received nack credit for flit 89270
Requeued flit 89270
Received nack credit for flit 118132
Requeued flit 118132
3
1
1
Received nack credit for flit 118228
Requeued flit 118228
Received nack credit for flit 118127
Requeued flit 118127
3
Received nack credit for flit 118456
Requeued flit 118456
1
Received nack credit for flit 96366
Requeued flit 96366
Received nack credit for flit 108218
Requeued flit 108218
5
Received nack credit for flit 96123
Requeued flit 96123
8
1
Received nack credit for flit 96982
Requeued flit 96982
Received nack credit for flit 119374
Requeued flit 119374
1
4
2
Received nack credit for flit 119476
Requeued flit 119476
Received nack credit for flit 119290
Requeued flit 119290
5
Received nack credit for flit 96533
Requeued flit 96533
1
Received nack credit for flit 107251
Requeued flit 107251
Received nack credit for flit 109818
Requeued flit 109818
4
2
Received nack credit for flit 106122
Requeued flit 106122
1
Received nack credit for flit 110508
Requeued flit 110508
3
Received nack credit for flit 105870
Requeued flit 105870
1
Received nack credit for flit 120491
Requeued flit 120491
1
Received nack credit for flit 120826
Requeued flit 120826
Received nack credit for flit 110184
Requeued flit 110184
2
Received nack credit for flit 121269
Requeued flit 121269
4
Received nack credit for flit 106759
Requeued flit 106759
7
1
Received nack credit for flit 105331
Requeued flit 105331
4
2
Received nack credit for flit 122159
Requeued flit 122159
Received nack credit for flit 109468
Requeued flit 109468
Received nack credit for flit 98329
Requeued flit 98329
4
Received nack credit for flit 96861
Requeued flit 96861
1
Received nack credit for flit 122799
Requeued flit 122799
4
Received nack credit for flit 101032
Requeued flit 101032
1
6
2
Received nack credit for flit 113160
Requeued flit 113160
Received nack credit for flit 98767
Requeued flit 98767
Received nack credit for flit 102483
Requeued flit 102483
4
Received nack credit for flit 107038
Requeued flit 107038
6
7
2
Received nack credit for flit 100568
Requeued flit 100568
Received nack credit for flit 97992
Requeued flit 97992
Received nack credit for flit 124605
Requeued flit 124605
2
9
Received nack credit for flit 112231
Requeued flit 112231
1
Received nack credit for flit 100127
Requeued flit 100127
Received nack credit for flit 125327
Requeued flit 125327
2
1
Received nack credit for flit 125523
Requeued flit 125523
2
3
Received nack credit for flit 125733
Requeued flit 125733
Received nack credit for flit 125630
Requeued flit 125630
Received nack credit for flit 125557
Requeued flit 125557
1
6
Received nack credit for flit 126181
Requeued flit 126181
5
Received nack credit for flit 106133
Requeued flit 106133
1
Received nack credit for flit 99192
Requeued flit 99192
1
5
Received nack credit for flit 116798
Requeued flit 116798
Received nack credit for flit 115904
Requeued flit 115904
Received nack credit for flit 99265
Requeued flit 99265
1
7
Received nack credit for flit 114951
Requeued flit 114951
Received nack credit for flit 102418
Requeued flit 102418
1
5
Received nack credit for flit 127762
Requeued flit 127762
Received nack credit for flit 99439
Requeued flit 99439
2
Received nack credit for flit 128076
Requeued flit 128076
6
1
5
Received nack credit for flit 128504
Requeued flit 128504
9
Received nack credit for flit 117256
Requeued flit 117256
Received nack credit for flit 91430
Requeued flit 91430
Received nack credit for flit 95800
Requeued flit 95800
2
1
Received nack credit for flit 117313
Requeued flit 117313
2
Received nack credit for flit 129068
Requeued flit 129068
3
Received nack credit for flit 129105
Requeued flit 129105
Received nack credit for flit 114799
Requeued flit 114799
7
6
Received nack credit for flit 101201
Requeued flit 101201
1
Received nack credit for flit 103618
Requeued flit 103618
Received nack credit for flit 129890
Requeued flit 129890
3
4
7
Received nack credit for flit 104829
Requeued flit 104829
Received nack credit for flit 104331
Requeued flit 104331
1
Received nack credit for flit 106777
Requeued flit 106777
1
Received nack credit for flit 130737
Requeued flit 130737
1
Received nack credit for flit 130838
Requeued flit 130838
Received nack credit for flit 130988
Requeued flit 130988
1
8
Received nack credit for flit 131080
Requeued flit 131080
1
Received nack credit for flit 117404
Requeued flit 117404
Received nack credit for flit 119545
Requeued flit 119545
3
2
1
1
Received nack credit for flit 118653
Requeued flit 118653
Received nack credit for flit 117094
Requeued flit 117094
3
1
Received nack credit for flit 117636
Requeued flit 117636
Received nack credit for flit 132222
Requeued flit 132222
Received nack credit for flit 131677
Requeued flit 131677
Received nack credit for flit 132156
Requeued flit 132156
4
Received nack credit for flit 103688
Requeued flit 103688
7
6
Received nack credit for flit 98822
Requeued flit 98822
Received nack credit for flit 119496
Requeued flit 119496
7
1
1
Received nack credit for flit 119159
Requeued flit 119159
Received nack credit for flit 132995
Requeued flit 132995
Received nack credit for flit 108697
Requeued flit 108697
5
3
Received nack credit for flit 106171
Requeued flit 106171
Received nack credit for flit 109553
Requeued flit 109553
1
4
6
Received nack credit for flit 133859
Requeued flit 133859
7
Received nack credit for flit 133506
Requeued flit 133506
1
1
Received nack credit for flit 112063
Requeued flit 112063
5
Received nack credit for flit 118590
Requeued flit 118590
Received nack credit for flit 134209
Requeued flit 134209
Received nack credit for flit 134064
Requeued flit 134064
Received nack credit for flit 109067
Requeued flit 109067
1
2
6
2
Received nack credit for flit 122705
Requeued flit 122705
Received nack credit for flit 119673
Requeued flit 119673
Received nack credit for flit 109400
Requeued flit 109400
1
Received nack credit for flit 117604
Requeued flit 117604
Received nack credit for flit 135071
Requeued flit 135071
1
4
Received nack credit for flit 135341
Requeued flit 135341
Received nack credit for flit 110124
Requeued flit 110124
5
7
2
Received nack credit for flit 109774
Requeued flit 109774
Received nack credit for flit 103627
Requeued flit 103627
Received nack credit for flit 110469
Requeued flit 110469
1
Received nack credit for flit 136025
Requeued flit 136025
1
3
7
Received nack credit for flit 136370
Requeued flit 136370
Received nack credit for flit 120597
Requeued flit 120597
4
Received nack credit for flit 127220
Requeued flit 127220
4
4
4
4
1
Received nack credit for flit 136691
Requeued flit 136691
Received nack credit for flit 136213
Requeued flit 136213
Received nack credit for flit 136134
Requeued flit 136134
8
2
2
Received nack credit for flit 129902
Requeued flit 129902
Received nack credit for flit 109989
Requeued flit 109989
2
Received nack credit for flit 137456
Requeued flit 137456
Received nack credit for flit 133019
Requeued flit 133019
4
4
2
Received nack credit for flit 106002
Requeued flit 106002
2
Received nack credit for flit 119620
Requeued flit 119620
Received nack credit for flit 126738
Requeued flit 126738
Received nack credit for flit 138302
Requeued flit 138302
3
1
1
2
Received nack credit for flit 112656
Requeued flit 112656
Received nack credit for flit 120506
Requeued flit 120506
Received nack credit for flit 139088
Requeued flit 139088
Received nack credit for flit 127407
Requeued flit 127407
5
2
Received nack credit for flit 113686
Requeued flit 113686
3
Received nack credit for flit 113825
Requeued flit 113825
Received nack credit for flit 123600
Requeued flit 123600
3
6
Received nack credit for flit 136162
Requeued flit 136162
10
3
Received nack credit for flit 125090
Requeued flit 125090
4
Received nack credit for flit 102750
Requeued flit 102750
Received nack credit for flit 124132
Requeued flit 124132
Received nack credit for flit 112485
Requeued flit 112485
4
1
Received nack credit for flit 128148
Requeued flit 128148
Received nack credit for flit 129340
Requeued flit 129340
2
Received nack credit for flit 140650
Requeued flit 140650
4
8
Received nack credit for flit 113202
Requeued flit 113202
1
Received nack credit for flit 102836
Requeued flit 102836
Received nack credit for flit 141688
Requeued flit 141688
3
2
Received nack credit for flit 116989
Requeued flit 116989
Received nack credit for flit 128801
Requeued flit 128801
2
5
8
Received nack credit for flit 142774
Requeued flit 142774
1
Received nack credit for flit 131662
Requeued flit 131662
Received nack credit for flit 114232
Requeued flit 114232
1
Received nack credit for flit 143315
Requeued flit 143315
Received nack credit for flit 143268
Requeued flit 143268
3
7
Received nack credit for flit 116628
Requeued flit 116628
Received nack credit for flit 123961
Requeued flit 123961
5
4
7
Received nack credit for flit 116501
Requeued flit 116501
Received nack credit for flit 113049
Requeued flit 113049
1
Received nack credit for flit 107496
Requeued flit 107496
4
Received nack credit for flit 144376
Requeued flit 144376
9
Received nack credit for flit 123980
Requeued flit 123980
Received nack credit for flit 108560
Requeued flit 108560
3
Received nack credit for flit 129239
Requeued flit 129239
1
1
2
1
Received nack credit for flit 145266
Requeued flit 145266
Received nack credit for flit 145260
Requeued flit 145260
Received nack credit for flit 126910
Requeued flit 126910
Received nack credit for flit 145438
Requeued flit 145438
4
Received nack credit for flit 119154
Requeued flit 119154
3
1
Received nack credit for flit 128476
Requeued flit 128476
Received nack credit for flit 146517
Requeued flit 146517
2
1
6
Received nack credit for flit 146737
Requeued flit 146737
Received nack credit for flit 130528
Requeued flit 130528
6
Received nack credit for flit 131581
Requeued flit 131581
Received nack credit for flit 137851
Requeued flit 137851
8
4
1
4
Received nack credit for flit 119044
Requeued flit 119044
Received nack credit for flit 136350
Requeued flit 136350
Received nack credit for flit 135139
Requeued flit 135139
3
Received nack credit for flit 122240
Requeued flit 122240
Received nack credit for flit 121301
Requeued flit 121301
2
1
Received nack credit for flit 134749
Requeued flit 134749
Received nack credit for flit 133482
Requeued flit 133482
3
2
1
1
Received nack credit for flit 120492
Requeued flit 120492
Received nack credit for flit 136739
Requeued flit 136739
Received nack credit for flit 134749
Requeued flit 134749
Received nack credit for flit 136820
Requeued flit 136820
8
5
6
Received nack credit for flit 114140
Requeued flit 114140
Received nack credit for flit 119790
Requeued flit 119790
3
2
Received nack credit for flit 119022
Requeued flit 119022
Received nack credit for flit 122233
Requeued flit 122233
Received nack credit for flit 149863
Requeued flit 149863
1
1
5
4
3
Received nack credit for flit 150693
Requeued flit 150693
Received nack credit for flit 150770
Requeued flit 150770
Received nack credit for flit 121493
Requeued flit 121493
2
Received nack credit for flit 120252
Requeued flit 120252
Received nack credit for flit 119584
Requeued flit 119584
1
Received nack credit for flit 150821
Requeued flit 150821
5
Received nack credit for flit 151121
Requeued flit 151121
2
1
Received nack credit for flit 123081
Requeued flit 123081
3
Received nack credit for flit 150972
Requeued flit 150972
1
Received nack credit for flit 151405
Requeued flit 151405
Received nack credit for flit 120487
Requeued flit 120487
Received nack credit for flit 151679
Requeued flit 151679
5
1
Received nack credit for flit 124317
Requeued flit 124317
Received nack credit for flit 139396
Requeued flit 139396
3
8
Received nack credit for flit 121340
Requeued flit 121340
Received nack credit for flit 112833
Requeued flit 112833
1
1
Received nack credit for flit 153146
Requeued flit 153146
1
6
1
7
Received nack credit for flit 153269
Requeued flit 153269
2
Received nack credit for flit 140601
Requeued flit 140601
Received nack credit for flit 153458
Requeued flit 153458
Received nack credit for flit 122249
Requeued flit 122249
Received nack credit for flit 124236
Requeued flit 124236
Received nack credit for flit 129170
Requeued flit 129170
5
3
5
Received nack credit for flit 124427
Requeued flit 124427
Received nack credit for flit 127811
Requeued flit 127811
Received nack credit for flit 123148
Requeued flit 123148
1
Received nack credit for flit 154047
Requeued flit 154047
5
1
Received nack credit for flit 136564
Requeued flit 136564
Received nack credit for flit 154144
Requeued flit 154144
1
3
3
Received nack credit for flit 154658
Requeued flit 154658
Received nack credit for flit 144238
Requeued flit 144238
4
5
Received nack credit for flit 144318
Requeued flit 144318
7
7
Received nack credit for flit 154539
Requeued flit 154539
Received nack credit for flit 127843
Requeued flit 127843
Received nack credit for flit 135742
Requeued flit 135742
Received nack credit for flit 116835
Requeued flit 116835
1
4
Received nack credit for flit 155065
Requeued flit 155065
2
Received nack credit for flit 124596
Requeued flit 124596
2
Received nack credit for flit 155246
Requeued flit 155246
1
2
4
Received nack credit for flit 142324
Requeued flit 142324
Received nack credit for flit 142665
Requeued flit 142665
Received nack credit for flit 140704
Requeued flit 140704
6
Received nack credit for flit 126090
Requeued flit 126090
3
Received nack credit for flit 111365
Requeued flit 111365
1
Received nack credit for flit 141713
Requeued flit 141713
Received nack credit for flit 156172
Requeued flit 156172
1
2
Received nack credit for flit 156494
Requeued flit 156494
3
Received nack credit for flit 140327
Requeued flit 140327
Received nack credit for flit 128937
Requeued flit 128937
2
4
4
Received nack credit for flit 157293
Requeued flit 157293
1
Received nack credit for flit 142424
Requeued flit 142424
Received nack credit for flit 143586
Requeued flit 143586
Received nack credit for flit 157744
Requeued flit 157744
3
Received nack credit for flit 127236
Requeued flit 127236
1
1
8
Received nack credit for flit 158390
Requeued flit 158390
Received nack credit for flit 141981
Requeued flit 141981
Received nack credit for flit 127508
Requeued flit 127508
1
1
7
Received nack credit for flit 158780
Requeued flit 158780
Received nack credit for flit 158835
Requeued flit 158835
Received nack credit for flit 119278
Requeued flit 119278
1
Received nack credit for flit 145568
Requeued flit 145568
6
Received nack credit for flit 127110
Requeued flit 127110
2
Received nack credit for flit 159874
Requeued flit 159874
6
Received nack credit for flit 128206
Requeued flit 128206
1
Received nack credit for flit 160903
Requeued flit 160903
5
Received nack credit for flit 130156
Requeued flit 130156
1
1
Received nack credit for flit 143548
Requeued flit 143548
3
Received nack credit for flit 148668
Requeued flit 148668
3
Received nack credit for flit 145939
Requeued flit 145939
1
Received nack credit for flit 134360
Requeued flit 134360
Received nack credit for flit 162886
Requeued flit 162886
5
5
Received nack credit for flit 146596
Requeued flit 146596
3
Received nack credit for flit 136870
Requeued flit 136870
Received nack credit for flit 152108
Requeued flit 152108
5
Received nack credit for flit 143925
Requeued flit 143925
1
4
Received nack credit for flit 137561
Requeued flit 137561
Received nack credit for flit 163969
Requeued flit 163969
9
6
Received nack credit for flit 132904
Requeued flit 132904
Received nack credit for flit 132337
Requeued flit 132337
2
1
Received nack credit for flit 132008
Requeued flit 132008
Received nack credit for flit 164958
Requeued flit 164958
6
2
1
Received nack credit for flit 125185
Requeued flit 125185
Received nack credit for flit 150654
Requeued flit 150654
Received nack credit for flit 165058
Requeued flit 165058
3
Received nack credit for flit 132907
Requeued flit 132907
3
1
2
Received nack credit for flit 165444
Requeued flit 165444
Received nack credit for flit 165901
Requeued flit 165901
Received nack credit for flit 134904
Requeued flit 134904
1
Received nack credit for flit 166181
Requeued flit 166181
1
3
Received nack credit for flit 166457
Requeued flit 166457
Received nack credit for flit 159977
Requeued flit 159977
1
3
Received nack credit for flit 166351
Requeued flit 166351
7
Received nack credit for flit 148399
Requeued flit 148399
Received nack credit for flit 128899
Requeued flit 128899
10
1
2
Received nack credit for flit 120712
Requeued flit 120712
Received nack credit for flit 166865
Requeued flit 166865
11
Received nack credit for flit 167191
Requeued flit 167191
5
Received nack credit for flit 119146
Requeued flit 119146
Received nack credit for flit 147812
Requeued flit 147812
3
2
2
Received nack credit for flit 135025
Requeued flit 135025
Received nack credit for flit 167642
Requeued flit 167642
Received nack credit for flit 167527
Requeued flit 167527
7
1
Received nack credit for flit 129075
Requeued flit 129075
Received nack credit for flit 154558
Requeued flit 154558
2
1
6
Received nack credit for flit 139872
Requeued flit 139872
Received nack credit for flit 154136
Requeued flit 154136
Received nack credit for flit 137244
Requeued flit 137244
1
4
Received nack credit for flit 169110
Requeued flit 169110
Received nack credit for flit 148121
Requeued flit 148121
2
6
Received nack credit for flit 169371
Requeued flit 169371
Received nack credit for flit 151719
Requeued flit 151719
9
Received nack credit for flit 123752
Requeued flit 123752
1
2
Received nack credit for flit 170372
Requeued flit 170372
4
Received nack credit for flit 151625
Requeued flit 151625
Received nack credit for flit 153809
Requeued flit 153809
4
1
Received nack credit for flit 153680
Requeued flit 153680
Received nack credit for flit 171288
Requeued flit 171288
7
4
1
Received nack credit for flit 141984
Requeued flit 141984
1
Received nack credit for flit 137638
Requeued flit 137638
Received nack credit for flit 172247
Requeued flit 172247
3
Received nack credit for flit 172363
Requeued flit 172363
1
Received nack credit for flit 157347
Requeued flit 157347
Received nack credit for flit 172404
Requeued flit 172404
4
1
1
Received nack credit for flit 135320
Requeued flit 135320
Received nack credit for flit 173019
Requeued flit 173019
2
Received nack credit for flit 163935
Requeued flit 163935
4
Received nack credit for flit 173066
Requeued flit 173066
3
1
Received nack credit for flit 138613
Requeued flit 138613
6
1
Received nack credit for flit 134124
Requeued flit 134124
Received nack credit for flit 172840
Requeued flit 172840
Received nack credit for flit 173520
Requeued flit 173520
Received nack credit for flit 173719
Requeued flit 173719
2
Received nack credit for flit 158880
Requeued flit 158880
4
2
Received nack credit for flit 142559
Requeued flit 142559
7
Received nack credit for flit 140146
Requeued flit 140146
Received nack credit for flit 141267
Requeued flit 141267
7
1
Received nack credit for flit 140496
Requeued flit 140496
6
Received nack credit for flit 175180
Requeued flit 175180
Received nack credit for flit 154018
Requeued flit 154018
3
6
1
8
Received nack credit for flit 140546
Requeued flit 140546
Received nack credit for flit 175677
Requeued flit 175677
Received nack credit for flit 133567
Requeued flit 133567
Received nack credit for flit 171608
Requeued flit 171608
9
Received nack credit for flit 132034
Requeued flit 132034
7
Received nack credit for flit 158151
Requeued flit 158151
5
1
3
Received nack credit for flit 145643
Requeued flit 145643
2
4
Received nack credit for flit 142305
Requeued flit 142305
Received nack credit for flit 177554
Requeued flit 177554
Received nack credit for flit 140640
Requeued flit 140640
2
Received nack credit for flit 177381
Requeued flit 177381
Received nack credit for flit 169061
Requeued flit 169061
2
Received nack credit for flit 177620
Requeued flit 177620
1
Received nack credit for flit 161263
Requeued flit 161263
3
Received nack credit for flit 142618
Requeued flit 142618
1
Received nack credit for flit 179289
Requeued flit 179289
1
1
Received nack credit for flit 160439
Requeued flit 160439
Received nack credit for flit 179549
Requeued flit 179549
3
Received nack credit for flit 144605
Requeued flit 144605
1
Received nack credit for flit 160795
Requeued flit 160795
5
2
9
Received nack credit for flit 170487
Requeued flit 170487
Received nack credit for flit 180245
Requeued flit 180245
Received nack credit for flit 126806
Requeued flit 126806
5
3
1
Received nack credit for flit 158179
Requeued flit 158179
Received nack credit for flit 180528
Requeued flit 180528
Received nack credit for flit 180967
Requeued flit 180967
3
2
1
Received nack credit for flit 146676
Requeued flit 146676
Received nack credit for flit 180974
Requeued flit 180974
Received nack credit for flit 181217
Requeued flit 181217
2
2
Received nack credit for flit 181498
Requeued flit 181498
Received nack credit for flit 150182
Requeued flit 150182
9
1
Received nack credit for flit 181637
Requeued flit 181637
Received nack credit for flit 161028
Requeued flit 161028
1
Received nack credit for flit 165738
Requeued flit 165738
6
4
5
4
Received nack credit for flit 166048
Requeued flit 166048
Received nack credit for flit 148330
Requeued flit 148330
Received nack credit for flit 148493
Requeued flit 148493
Received nack credit for flit 150849
Requeued flit 150849
2
Received nack credit for flit 182788
Requeued flit 182788
1
Received nack credit for flit 183558
Requeued flit 183558
4
Received nack credit for flit 149180
Requeued flit 149180
6
1
1
Received nack credit for flit 171127
Requeued flit 171127
3
Received nack credit for flit 146591
Requeued flit 146591
Received nack credit for flit 184355
Requeued flit 184355
1
4
3
7
2
Received nack credit for flit 149757
Requeued flit 149757
Received nack credit for flit 165243
Requeued flit 165243
Received nack credit for flit 184230
Requeued flit 184230
Received nack credit for flit 150406
Requeued flit 150406
Received nack credit for flit 184762
Requeued flit 184762
Received nack credit for flit 153776
Requeued flit 153776
6
8
1
4
Received nack credit for flit 153026
Requeued flit 153026
Received nack credit for flit 137770
Requeued flit 137770
Received nack credit for flit 185080
Requeued flit 185080
Received nack credit for flit 154878
Requeued flit 154878
7
1
1
1
2
1
Received nack credit for flit 151976
Requeued flit 151976
Received nack credit for flit 185572
Requeued flit 185572
Received nack credit for flit 185582
Requeued flit 185582
Received nack credit for flit 185609
Requeued flit 185609
Received nack credit for flit 181493
Requeued flit 181493
Received nack credit for flit 185707
Requeued flit 185707
2
1
Received nack credit for flit 186125
Requeued flit 186125
6
3
1
2
Received nack credit for flit 166827
Requeued flit 166827
Received nack credit for flit 161786
Requeued flit 161786
Received nack credit for flit 169134
Requeued flit 169134
Received nack credit for flit 162781
Requeued flit 162781
4
4
Received nack credit for flit 186483
Requeued flit 186483
9
Received nack credit for flit 150591
Requeued flit 150591
Received nack credit for flit 154136
Requeued flit 154136
Received nack credit for flit 141877
Requeued flit 141877
1
4
1
2
Received nack credit for flit 148207
Requeued flit 148207
4
Received nack credit for flit 169155
Requeued flit 169155
Received nack credit for flit 187139
Requeued flit 187139
Received nack credit for flit 169777
Requeued flit 169777
Received nack credit for flit 150204
Requeued flit 150204
2
4
Received nack credit for flit 187189
Requeued flit 187189
Received nack credit for flit 151766
Requeued flit 151766
3
1
Received nack credit for flit 171350
Requeued flit 171350
Received nack credit for flit 188244
Requeued flit 188244
6
2
Received nack credit for flit 167408
Requeued flit 167408
1
Received nack credit for flit 172226
Requeued flit 172226
Received nack credit for flit 188497
Requeued flit 188497
2
Received nack credit for flit 152319
Requeued flit 152319
3
Received nack credit for flit 154250
Requeued flit 154250
1
Received nack credit for flit 189759
Requeued flit 189759
1
Received nack credit for flit 189675
Requeued flit 189675
7
2
7
Received nack credit for flit 170830
Requeued flit 170830
Received nack credit for flit 190069
Requeued flit 190069
Received nack credit for flit 140738
Requeued flit 140738
3
7
1
2
Received nack credit for flit 190164
Requeued flit 190164
Received nack credit for flit 139820
Requeued flit 139820
1
Received nack credit for flit 157705
Requeued flit 157705
Received nack credit for flit 190954
Requeued flit 190954
Received nack credit for flit 190925
Requeued flit 190925
3
1
6
Received nack credit for flit 168987
Requeued flit 168987
Received nack credit for flit 191314
Requeued flit 191314
Received nack credit for flit 164124
Requeued flit 164124
3
1
Received nack credit for flit 154828
Requeued flit 154828
Received nack credit for flit 191668
Requeued flit 191668
5
2
2
4
Received nack credit for flit 153108
Requeued flit 153108
Received nack credit for flit 169937
Requeued flit 169937
Received nack credit for flit 170125
Requeued flit 170125
4
3
1
Received nack credit for flit 152691
Requeued flit 152691
Received nack credit for flit 169933
Requeued flit 169933
Received nack credit for flit 192273
Requeued flit 192273
5
8
1
Received nack credit for flit 172448
Requeued flit 172448
Received nack credit for flit 149177
Requeued flit 149177
6
Received nack credit for flit 173729
Requeued flit 173729
Received nack credit for flit 154596
Requeued flit 154596
3
7
Received nack credit for flit 176378
Requeued flit 176378
Received nack credit for flit 156364
Requeued flit 156364
5
Received nack credit for flit 154990
Requeued flit 154990
5
Received nack credit for flit 156822
Requeued flit 156822
6
Received nack credit for flit 192314
Requeued flit 192314
4
6
Received nack credit for flit 177880
Requeued flit 177880
Received nack credit for flit 154864
Requeued flit 154864
5
4
Received nack credit for flit 155582
Requeued flit 155582
2
1
Received nack credit for flit 166399
Requeued flit 166399
Received nack credit for flit 175801
Requeued flit 175801
4
Received nack credit for flit 195126
Requeued flit 195126
1
4
Received nack credit for flit 158829
Requeued flit 158829
Received nack credit for flit 195584
Requeued flit 195584
Received nack credit for flit 188471
Requeued flit 188471
1
Received nack credit for flit 196429
Requeued flit 196429
3
7
Received nack credit for flit 178487
Requeued flit 178487
1
Received nack credit for flit 159504
Requeued flit 159504
4
9
Received nack credit for flit 180154
Requeued flit 180154
1
Received nack credit for flit 157473
Requeued flit 157473
Received nack credit for flit 197219
Requeued flit 197219
Received nack credit for flit 158534
Requeued flit 158534
8
11
1
Received nack credit for flit 140415
Requeued flit 140415
Received nack credit for flit 158558
Requeued flit 158558
1
1
Received nack credit for flit 178446
Requeued flit 178446
Received nack credit for flit 197568
Requeued flit 197568
Received nack credit for flit 197660
Requeued flit 197660
8
3
5
Received nack credit for flit 146666
Requeued flit 146666
Received nack credit for flit 171950
Requeued flit 171950
Received nack credit for flit 197756
Requeued flit 197756
1
5
Received nack credit for flit 198427
Requeued flit 198427
Received nack credit for flit 161097
Requeued flit 161097
7
3
Received nack credit for flit 173142
Requeued flit 173142
2
Received nack credit for flit 181289
Requeued flit 181289
1
1
Received nack credit for flit 182369
Requeued flit 182369
8
1
Received nack credit for flit 181267
Requeued flit 181267
Received nack credit for flit 199819
Requeued flit 199819
Received nack credit for flit 141802
Requeued flit 141802
Received nack credit for flit 199923
Requeued flit 199923
1
6
Received nack credit for flit 180915
Requeued flit 180915
1
Received nack credit for flit 153495
Requeued flit 153495
Received nack credit for flit 200531
Requeued flit 200531
4
6
1
1
1
6
Received nack credit for flit 163812
Requeued flit 163812
Received nack credit for flit 185935
Requeued flit 185935
Received nack credit for flit 201442
Requeued flit 201442
Received nack credit for flit 201458
Requeued flit 201458
Received nack credit for flit 181697
Requeued flit 181697
Received nack credit for flit 160843
Requeued flit 160843
5
7
10
Received nack credit for flit 165266
Requeued flit 165266
Received nack credit for flit 162761
Requeued flit 162761
Received nack credit for flit 147540
Requeued flit 147540
1
4
Received nack credit for flit 172615
Requeued flit 172615
Received nack credit for flit 202651
Requeued flit 202651
1
2
Received nack credit for flit 202966
Requeued flit 202966
Received nack credit for flit 202823
Requeued flit 202823
2
12
Received nack credit for flit 151574
Requeued flit 151574
Received nack credit for flit 203104
Requeued flit 203104
7
7
1
1
Received nack credit for flit 168800
Requeued flit 168800
1
4
Received nack credit for flit 203224
Requeued flit 203224
Received nack credit for flit 203497
Requeued flit 203497
Received nack credit for flit 185066
Requeued flit 185066
3
Received nack credit for flit 203665
Requeued flit 203665
1
Received nack credit for flit 203539
Requeued flit 203539
3
7
Received nack credit for flit 184702
Requeued flit 184702
Received nack credit for flit 176768
Requeued flit 176768
Received nack credit for flit 159888
Requeued flit 159888
1
2
Received nack credit for flit 204643
Requeued flit 204643
1
Received nack credit for flit 177325
Requeued flit 177325
Received nack credit for flit 204846
Requeued flit 204846
2
2
5
Received nack credit for flit 204627
Requeued flit 204627
Received nack credit for flit 175081
Requeued flit 175081
2
Received nack credit for flit 204393
Requeued flit 204393
Received nack credit for flit 205260
Requeued flit 205260
5
1
Received nack credit for flit 186663
Requeued flit 186663
Received nack credit for flit 205926
Requeued flit 205926
5
1
Received nack credit for flit 181975
Requeued flit 181975
Received nack credit for flit 206381
Requeued flit 206381
3
1
6
Received nack credit for flit 206338
Requeued flit 206338
1
Received nack credit for flit 207013
Requeued flit 207013
Received nack credit for flit 205383
Requeued flit 205383
Received nack credit for flit 207156
Requeued flit 207156
1
3
Received nack credit for flit 189737
Requeued flit 189737
3
1
Received nack credit for flit 165950
Requeued flit 165950
Received nack credit for flit 169397
Requeued flit 169397
1
Received nack credit for flit 207874
Requeued flit 207874
4
Received nack credit for flit 189256
Requeued flit 189256
Received nack credit for flit 186400
Requeued flit 186400
10
3
1
3
Received nack credit for flit 168910
Requeued flit 168910
Received nack credit for flit 156499
Requeued flit 156499
8
Received nack credit for flit 208469
Requeued flit 208469
Received nack credit for flit 206501
Requeued flit 206501
Received nack credit for flit 150913
Requeued flit 150913
3
1
Received nack credit for flit 201783
Requeued flit 201783
1
6
Received nack credit for flit 191057
Requeued flit 191057
Received nack credit for flit 209178
Requeued flit 209178
Received nack credit for flit 171685
Requeued flit 171685
8
1
Received nack credit for flit 150263
Requeued flit 150263
2
Received nack credit for flit 190354
Requeued flit 190354
Received nack credit for flit 209682
Requeued flit 209682
1
2
4
Received nack credit for flit 190597
Requeued flit 190597
Received nack credit for flit 209956
Requeued flit 209956
5
9
Received nack credit for flit 191440
Requeued flit 191440
Received nack credit for flit 165581
Requeued flit 165581
Received nack credit for flit 155821
Requeued flit 155821
1
1
1
Received nack credit for flit 210584
Requeued flit 210584
4
Received nack credit for flit 203835
Requeued flit 203835
Received nack credit for flit 210722
Requeued flit 210722
2
Received nack credit for flit 195747
Requeued flit 195747
4
1
Received nack credit for flit 210815
Requeued flit 210815
Received nack credit for flit 173704
Requeued flit 173704
Received nack credit for flit 192184
Requeued flit 192184
2
1
1
Received nack credit for flit 211516
Requeued flit 211516
5
Received nack credit for flit 191727
Requeued flit 191727
2
Received nack credit for flit 211595
Requeued flit 211595
Received nack credit for flit 176300
Requeued flit 176300
4
Received nack credit for flit 204203
Requeued flit 204203
Received nack credit for flit 168694
Requeued flit 168694
1
6
Received nack credit for flit 212201
Requeued flit 212201
Received nack credit for flit 167934
Requeued flit 167934
2
7
1
Received nack credit for flit 212461
Requeued flit 212461
Received nack credit for flit 192894
Requeued flit 192894
Received nack credit for flit 212545
Requeued flit 212545
4
Received nack credit for flit 173870
Requeued flit 173870
1
3
Received nack credit for flit 177766
Requeued flit 177766
Received nack credit for flit 193968
Requeued flit 193968
5
1
Received nack credit for flit 171969
Requeued flit 171969
1
7
Received nack credit for flit 213909
Requeued flit 213909
Received nack credit for flit 214040
Requeued flit 214040
Received nack credit for flit 168510
Requeued flit 168510
1
4
Received nack credit for flit 214592
Requeued flit 214592
Received nack credit for flit 213825
Requeued flit 213825
8
7
9
1
Received nack credit for flit 173611
Requeued flit 173611
Received nack credit for flit 154481
Requeued flit 154481
Received nack credit for flit 155017
Requeued flit 155017
Received nack credit for flit 215346
Requeued flit 215346
3
9
1
1
Received nack credit for flit 215643
Requeued flit 215643
Received nack credit for flit 215986
Requeued flit 215986
6
1
Received nack credit for flit 216123
Requeued flit 216123
Received nack credit for flit 160711
Requeued flit 160711
Received nack credit for flit 215969
Requeued flit 215969
Received nack credit for flit 196379
Requeued flit 196379
5
1
Received nack credit for flit 175959
Requeued flit 175959
Received nack credit for flit 216577
Requeued flit 216577
1
5
Received nack credit for flit 216056
Requeued flit 216056
6
Received nack credit for flit 178434
Requeued flit 178434
2
1
1
7
Received nack credit for flit 198757
Requeued flit 198757
10
Received nack credit for flit 168707
Requeued flit 168707
Received nack credit for flit 216994
Requeued flit 216994
Received nack credit for flit 217476
Requeued flit 217476
Received nack credit for flit 169814
Requeued flit 169814
Received nack credit for flit 164411
Requeued flit 164411
1
Received nack credit for flit 198592
Requeued flit 198592
3
2
Received nack credit for flit 211357
Requeued flit 211357
2
3
Received nack credit for flit 218224
Requeued flit 218224
Received nack credit for flit 218409
Requeued flit 218409
Received nack credit for flit 191562
Requeued flit 191562
1
5
1
1
Received nack credit for flit 218706
Requeued flit 218706
Received nack credit for flit 199848
Requeued flit 199848
Received nack credit for flit 218911
Requeued flit 218911
Received nack credit for flit 180524
Requeued flit 180524
4
8
Received nack credit for flit 178884
Requeued flit 178884
Received nack credit for flit 176340
Requeued flit 176340
4
Received nack credit for flit 218972
Requeued flit 218972
1
1
Received nack credit for flit 220566
Requeued flit 220566
Received nack credit for flit 201222
Requeued flit 201222
1
2
Received nack credit for flit 220817
Requeued flit 220817
7
Received nack credit for flit 215597
Requeued flit 215597
3
1
Received nack credit for flit 177017
Requeued flit 177017
6
Received nack credit for flit 186453
Requeued flit 186453
2
Received nack credit for flit 219804
Requeued flit 219804
Received nack credit for flit 188138
Requeued flit 188138
5
Received nack credit for flit 202777
Requeued flit 202777
Received nack credit for flit 177406
Requeued flit 177406
1
2
Received nack credit for flit 222094
Requeued flit 222094
Received nack credit for flit 201889
Requeued flit 201889
2
Received nack credit for flit 222426
Requeued flit 222426
6
1
1
Received nack credit for flit 191514
Requeued flit 191514
Received nack credit for flit 222556
Requeued flit 222556
5
Received nack credit for flit 222933
Requeued flit 222933
Received nack credit for flit 180386
Requeued flit 180386
2
Received nack credit for flit 223509
Requeued flit 223509
4
Received nack credit for flit 207564
Requeued flit 207564
6
1
4
Received nack credit for flit 224140
Requeued flit 224140
Received nack credit for flit 205945
Requeued flit 205945
Received nack credit for flit 201448
Requeued flit 201448
1
5
3
Received nack credit for flit 184449
Requeued flit 184449
Received nack credit for flit 187276
Requeued flit 187276
Received nack credit for flit 224585
Requeued flit 224585
1
1
5
Received nack credit for flit 224811
Requeued flit 224811
Received nack credit for flit 225014
Requeued flit 225014
Received nack credit for flit 174220
Requeued flit 174220
2
3
Received nack credit for flit 206313
Requeued flit 206313
Received nack credit for flit 195626
Requeued flit 195626
1
3
1
Received nack credit for flit 225322
Requeued flit 225322
2
1
Received nack credit for flit 212201
Requeued flit 212201
Received nack credit for flit 225592
Requeued flit 225592
Received nack credit for flit 203315
Requeued flit 203315
3
Received nack credit for flit 225437
Requeued flit 225437
Received nack credit for flit 224974
Requeued flit 224974
8
Received nack credit for flit 167441
Requeued flit 167441
3
6
Received nack credit for flit 209549
Requeued flit 209549
2
4
1
Received nack credit for flit 195385
Requeued flit 195385
Received nack credit for flit 189691
Requeued flit 189691
Received nack credit for flit 175983
Requeued flit 175983
6
Received nack credit for flit 227188
Requeued flit 227188
2
1
Received nack credit for flit 210968
Requeued flit 210968
Received nack credit for flit 227065
Requeued flit 227065
Received nack credit for flit 180177
Requeued flit 180177
4
Received nack credit for flit 185715
Requeued flit 185715
2
2
Received nack credit for flit 220942
Requeued flit 220942
[...]
Received nack credit for flit 247011
Requeued flit 247011
Received nack credit for flit 302300
Requeued flit 302300
Received nack credit for flit 290492
Requeued flit 290492
3
1
1
Received nack credit for flit 321228
Requeued flit 321228
Received nack credit for flit 288861
Requeued flit 288861
Received nack credit for flit 322219
Requeued flit 322219
2
3
Received nack credit for flit 304752
Requeued flit 304752
Received nack credit for flit 274433
Requeued flit 274433
2
1
Received nack credit for flit 323676
Requeued flit 323676
1
Received nack credit for flit 324576
Requeued flit 324576
Received nack credit for flit 324643
Requeued flit 324643
7
Received nack credit for flit 242332
Requeued flit 242332
1
1
8
Received nack credit for flit 324892
Requeued flit 324892
Received nack credit for flit 323544
Requeued flit 323544
1
Received nack credit for flit 275525
Requeued flit 275525
3
1
Received nack credit for flit 325994
Requeued flit 325994
5
Received nack credit for flit 245168
Requeued flit 245168
Received nack credit for flit 325676
Requeued flit 325676
Received nack credit for flit 281106
Requeued flit 281106
7
Received nack credit for flit 285881
Requeued flit 285881
1
2
2
4
Received nack credit for flit 272543
Requeued flit 272543
Received nack credit for flit 289226
Requeued flit 289226
Received nack credit for flit 326854
Requeued flit 326854
Received nack credit for flit 253626
Requeued flit 253626
3
8
Received nack credit for flit 258769
Requeued flit 258769
Received nack credit for flit 267860
Requeued flit 267860
1
3
Received nack credit for flit 327556
Requeued flit 327556
Received nack credit for flit 271284
Requeued flit 271284
2
Received nack credit for flit 308823
Requeued flit 308823
4
3
Received nack credit for flit 293944
Requeued flit 293944
1
Received nack credit for flit 326751
Requeued flit 326751
Received nack credit for flit 309616
Requeued flit 309616
8
2
5
Received nack credit for flit 243704
Requeued flit 243704
Received nack credit for flit 306212
Requeued flit 306212
Received nack credit for flit 309696
Requeued flit 309696
1
2
Received nack credit for flit 322353
Requeued flit 322353
Received nack credit for flit 305870
Requeued flit 305870
2
Received nack credit for flit 273049
Requeued flit 273049
1
1
Received nack credit for flit 311084
Requeued flit 311084
Received nack credit for flit 330106
Requeued flit 330106
5
5
Received nack credit for flit 307656
Requeued flit 307656
Received nack credit for flit 262648
Requeued flit 262648
3
1
Received nack credit for flit 293753
Requeued flit 293753
Received nack credit for flit 328516
Requeued flit 328516
2
1
Received nack credit for flit 284111
Requeued flit 284111
Received nack credit for flit 331700
Requeued flit 331700
3
1
5
Received nack credit for flit 248271
Requeued flit 248271
1
Received nack credit for flit 331372
Requeued flit 331372
Received nack credit for flit 301434
Requeued flit 301434
1
Received nack credit for flit 332242
Requeued flit 332242
Received nack credit for flit 327213
Requeued flit 327213
2
6
Received nack credit for flit 287119
Requeued flit 287119
1
Received nack credit for flit 260074
Requeued flit 260074
Received nack credit for flit 328354
Requeued flit 328354
7
Received nack credit for flit 276215
Requeued flit 276215
4
1
2
Received nack credit for flit 328583
Requeued flit 328583
Received nack credit for flit 314519
Requeued flit 314519
Received nack credit for flit 290173
Requeued flit 290173
1
7
6
Received nack credit for flit 308480
Requeued flit 308480
1
Received nack credit for flit 257916
Requeued flit 257916
10
Received nack credit for flit 333737
Requeued flit 333737
Received nack credit for flit 333930
Requeued flit 333930
Received nack credit for flit 228254
Requeued flit 228254
5
5
2
Received nack credit for flit 303591
Requeued flit 303591
Received nack credit for flit 302284
Requeued flit 302284
Received nack credit for flit 314976
Requeued flit 314976
1
2
4
Received nack credit for flit 303414
Requeued flit 303414
Received nack credit for flit 334665
Requeued flit 334665
Received nack credit for flit 247123
Requeued flit 247123
1
5
Received nack credit for flit 328985
Requeued flit 328985
9
3
Received nack credit for flit 293750
Requeued flit 293750
Received nack credit for flit 233053
Requeued flit 233053
Received nack credit for flit 335681
Requeued flit 335681
1
1
Received nack credit for flit 303300
Requeued flit 303300
Received nack credit for flit 336853
Requeued flit 336853
1
1
Received nack credit for flit 336838
Requeued flit 336838
Received nack credit for flit 318481
Requeued flit 318481
3
1
2
Received nack credit for flit 290552
Requeued flit 290552
Received nack credit for flit 337743
Requeued flit 337743
Received nack credit for flit 293935
Requeued flit 293935
1
Received nack credit for flit 334928
Requeued flit 334928
1
4
Received nack credit for flit 338747
Requeued flit 338747
Received nack credit for flit 326602
Requeued flit 326602
5
2
Received nack credit for flit 320218
Requeued flit 320218
Received nack credit for flit 300762
Requeued flit 300762
5
1
Received nack credit for flit 320200
Requeued flit 320200
Received nack credit for flit 311419
Requeued flit 311419
2
6
Received nack credit for flit 321355
Requeued flit 321355
9
Received nack credit for flit 311263
Requeued flit 311263
7
Received nack credit for flit 244985
Requeued flit 244985
Received nack credit for flit 263693
Requeued flit 263693
3
3
1
Received nack credit for flit 298975
Requeued flit 298975
1
Received nack credit for flit 291590
Requeued flit 291590
2
Received nack credit for flit 322191
Requeued flit 322191
Received nack credit for flit 337896
Requeued flit 337896
1
Received nack credit for flit 322147
Requeued flit 322147
Received nack credit for flit 341141
Requeued flit 341141
1
1
Received nack credit for flit 322702
Requeued flit 322702
Received nack credit for flit 322990
Requeued flit 322990
5
1
Received nack credit for flit 299995
Requeued flit 299995
Received nack credit for flit 342251
Requeued flit 342251
7
Received nack credit for flit 296473
Requeued flit 296473
4
Received nack credit for flit 263609
Requeued flit 263609
8
3
4
Received nack credit for flit 252175
Requeued flit 252175
1
1
Received nack credit for flit 342270
Requeued flit 342270
Received nack credit for flit 301949
Requeued flit 301949
Received nack credit for flit 335126
Requeued flit 335126
Received nack credit for flit 324771
Requeued flit 324771
7
Received nack credit for flit 315956
Requeued flit 315956
10
Received nack credit for flit 297081
Requeued flit 297081
2
Received nack credit for flit 303820
Requeued flit 303820
8
4
Received nack credit for flit 255591
Requeued flit 255591
7
Received nack credit for flit 326010
Requeued flit 326010
Received nack credit for flit 298348
Requeued flit 298348
1
Received nack credit for flit 345315
Requeued flit 345315
1
5
1
1
Received nack credit for flit 319066
Requeued flit 319066
Received nack credit for flit 344134
Requeued flit 344134
Received nack credit for flit 306795
Requeued flit 306795
Received nack credit for flit 344454
Requeued flit 344454
4
Received nack credit for flit 256861
Requeued flit 256861
6
Received nack credit for flit 267091
Requeued flit 267091
2
Received nack credit for flit 346039
Requeued flit 346039
3
Received nack credit for flit 328284
Requeued flit 328284
3
Received nack credit for flit 328731
Requeued flit 328731
4
2
Received nack credit for flit 286982
Requeued flit 286982
1
1
Received nack credit for flit 348387
Requeued flit 348387
Received nack credit for flit 348397
Requeued flit 348397
Received nack credit for flit 348656
Requeued flit 348656
2
2
Received nack credit for flit 348636
Requeued flit 348636
Received nack credit for flit 308486
Requeued flit 308486
10
9
4
Received nack credit for flit 248279
Requeued flit 248279
5
Received nack credit for flit 252662
Requeued flit 252662
Received nack credit for flit 283116
Requeued flit 283116
Received nack credit for flit 338184
Requeued flit 338184
3
Received nack credit for flit 283816
Requeued flit 283816
5
Received nack credit for flit 276301
Requeued flit 276301
2
Received nack credit for flit 290830
Requeued flit 290830
1
4
Received nack credit for flit 325833
Requeued flit 325833
Received nack credit for flit 325323
Requeued flit 325323
1
4
Received nack credit for flit 350139
Requeued flit 350139
Received nack credit for flit 310641
Requeued flit 310641
7
2
Received nack credit for flit 275385
Requeued flit 275385
Received nack credit for flit 351895
Requeued flit 351895
4
Received nack credit for flit 263244
Requeued flit 263244
1
Received nack credit for flit 334789
Requeued flit 334789
1
5
Received nack credit for flit 347299
Requeued flit 347299
Received nack credit for flit 320608
Requeued flit 320608
8
2
Received nack credit for flit 300481
Requeued flit 300481
Received nack credit for flit 313180
Requeued flit 313180
1
Received nack credit for flit 335607
Requeued flit 335607
1
1
2
1
Received nack credit for flit 335732
Requeued flit 335732
Received nack credit for flit 353026
Requeued flit 353026
Received nack credit for flit 313491
Requeued flit 313491
Received nack credit for flit 354022
Requeued flit 354022
2
2
1
7
Received nack credit for flit 354890
Requeued flit 354890
Received nack credit for flit 325170
Requeued flit 325170
3
Received nack credit for flit 353552
Requeued flit 353552
Received nack credit for flit 281112
Requeued flit 281112
Received nack credit for flit 271566
Requeued flit 271566
1
3
Received nack credit for flit 320338
Requeued flit 320338
5
2
Received nack credit for flit 354686
Requeued flit 354686
Received nack credit for flit 315971
Requeued flit 315971
Received nack credit for flit 355764
Requeued flit 355764
2
Received nack credit for flit 288519
Requeued flit 288519
2
1
Received nack credit for flit 316217
Requeued flit 316217
4
3
8
Received nack credit for flit 356587
Requeued flit 356587
Received nack credit for flit 327210
Requeued flit 327210
Received nack credit for flit 356656
Requeued flit 356656
Received nack credit for flit 257134
Requeued flit 257134
5
2
Received nack credit for flit 333607
Requeued flit 333607
Received nack credit for flit 309107
Requeued flit 309107
1
8
Received nack credit for flit 357564
Requeued flit 357564
8
2
4
Received nack credit for flit 330486
Requeued flit 330486
Received nack credit for flit 257576
Requeued flit 257576
Received nack credit for flit 339659
Requeued flit 339659
5
1
Received nack credit for flit 356838
Requeued flit 356838
2
Received nack credit for flit 357409
Requeued flit 357409
5
5
Received nack credit for flit 349371
Requeued flit 349371
4
Received nack credit for flit 357447
Requeued flit 357447
Received nack credit for flit 327905
Requeued flit 327905
Received nack credit for flit 288565
Requeued flit 288565
1
Received nack credit for flit 356579
Requeued flit 356579
4
6
Received nack credit for flit 282232
Requeued flit 282232
4
Received nack credit for flit 290702
Requeued flit 290702
Received nack credit for flit 341514
Requeued flit 341514
4
2
3
2
2
Received nack credit for flit 320151
Requeued flit 320151
1
Received nack credit for flit 360344
Requeued flit 360344
Received nack credit for flit 299517
Requeued flit 299517
Received nack credit for flit 342374
Requeued flit 342374
Received nack credit for flit 326805
Requeued flit 326805
Received nack credit for flit 342710
Requeued flit 342710
1
4
1
Received nack credit for flit 358827
Requeued flit 358827
Received nack credit for flit 342581
Requeued flit 342581
Received nack credit for flit 360651
Requeued flit 360651
2
3
Received nack credit for flit 292449
Requeued flit 292449
Received nack credit for flit 342471
Requeued flit 342471
1
1
2
4
Received nack credit for flit 360516
Requeued flit 360516
Received nack credit for flit 362177
Requeued flit 362177
Received nack credit for flit 321553
Requeued flit 321553
1
7
10
Received nack credit for flit 263685
Requeued flit 263685
Received nack credit for flit 360927
Requeued flit 360927
Received nack credit for flit 361987
Requeued flit 361987
1
Received nack credit for flit 271632
Requeued flit 271632
Received nack credit for flit 362717
Requeued flit 362717
1
Received nack credit for flit 322427
Requeued flit 322427
10
Received nack credit for flit 254998
Requeued flit 254998
1
8
Received nack credit for flit 363698
Requeued flit 363698
1
Received nack credit for flit 272477
Requeued flit 272477
Received nack credit for flit 364189
Requeued flit 364189
2
1
2
Received nack credit for flit 364526
Requeued flit 364526
2
Received nack credit for flit 325895
Requeued flit 325895
Received nack credit for flit 325804
Requeued flit 325804
Received nack credit for flit 346077
Requeued flit 346077
2
1
1
1
Received nack credit for flit 325892
Requeued flit 325892
Received nack credit for flit 361138
Requeued flit 361138
Received nack credit for flit 363384
Requeued flit 363384
4
Received nack credit for flit 365100
Requeued flit 365100
2
3
Received nack credit for flit 303272
Requeued flit 303272
2
Received nack credit for flit 347056
Requeued flit 347056
Received nack credit for flit 333945
Requeued flit 333945
Received nack credit for flit 322606
Requeued flit 322606
1
1
Received nack credit for flit 347869
Requeued flit 347869
2
Received nack credit for flit 365911
Requeued flit 365911
1
2
Received nack credit for flit 327890
Requeued flit 327890
Received nack credit for flit 365871
Requeued flit 365871
Received nack credit for flit 345073
Requeued flit 345073
3
2
3
1
1
Received nack credit for flit 366145
Requeued flit 366145
Received nack credit for flit 283441
Requeued flit 283441
Received nack credit for flit 321374
Requeued flit 321374
Received nack credit for flit 366405
Requeued flit 366405
Received nack credit for flit 332025
Requeued flit 332025
4
1
4
1
Received nack credit for flit 348007
Requeued flit 348007
Received nack credit for flit 366851
Requeued flit 366851
Received nack credit for flit 282407
Requeued flit 282407
Received nack credit for flit 366862
Requeued flit 366862
3
Received nack credit for flit 366548
Requeued flit 366548
5
3
4
Received nack credit for flit 326413
Requeued flit 326413
Received nack credit for flit 349009
Requeued flit 349009
Received nack credit for flit 348997
Requeued flit 348997
1
11
Received nack credit for flit 368115
Requeued flit 368115
3
Received nack credit for flit 316485
Requeued flit 316485
Received nack credit for flit 350152
Requeued flit 350152
2
2
1
4
5
Received nack credit for flit 368697
Requeued flit 368697
Received nack credit for flit 369027
Requeued flit 369027
Received nack credit for flit 351206
Requeued flit 351206
1
4
Received nack credit for flit 279327
Requeued flit 279327
Received nack credit for flit 329837
Requeued flit 329837
1
8
Received nack credit for flit 365886
Requeued flit 365886
Received nack credit for flit 274163
Requeued flit 274163
Received nack credit for flit 361865
Requeued flit 361865
Received nack credit for flit 324111
Requeued flit 324111
2
Received nack credit for flit 325420
Requeued flit 325420
1
1
2
7
Received nack credit for flit 367973
Requeued flit 367973
4
Received nack credit for flit 370273
Requeued flit 370273
Received nack credit for flit 328686
Requeued flit 328686
Received nack credit for flit 279057
Requeued flit 279057
3
Received nack credit for flit 350536
Requeued flit 350536
2
1
Received nack credit for flit 330441
Requeued flit 330441
1
Received nack credit for flit 327332
Requeued flit 327332
Received nack credit for flit 369415
Requeued flit 369415
Received nack credit for flit 370670
Requeued flit 370670
8
8
3
Received nack credit for flit 281097
Requeued flit 281097
Received nack credit for flit 270480
Requeued flit 270480
Received nack credit for flit 274680
Requeued flit 274680
1
2
Received nack credit for flit 370338
Requeued flit 370338
3
Received nack credit for flit 347303
Requeued flit 347303
Received nack credit for flit 371054
Requeued flit 371054
4
9
11
Received nack credit for flit 291502
Requeued flit 291502
Received nack credit for flit 263286
Requeued flit 263286
Received nack credit for flit 310172
Requeued flit 310172
1
Received nack credit for flit 365275
Requeued flit 365275
5
Received nack credit for flit 277369
Requeued flit 277369
2
1
3
Received nack credit for flit 317082
Requeued flit 317082
Received nack credit for flit 340050
Requeued flit 340050
Received nack credit for flit 371049
Requeued flit 371049
4
3
Received nack credit for flit 372741
Requeued flit 372741
Received nack credit for flit 302200
Requeued flit 302200
1
4
2
Received nack credit for flit 335103
Requeued flit 335103
Received nack credit for flit 360515
Requeued flit 360515
Received nack credit for flit 334874
Requeued flit 334874
1
6
5
Received nack credit for flit 334173
Requeued flit 334173
4
5
Received nack credit for flit 335798
Requeued flit 335798
Received nack credit for flit 281689
Requeued flit 281689
Received nack credit for flit 355263
Requeued flit 355263
Received nack credit for flit 373573
Requeued flit 373573
1
Received nack credit for flit 374400
Requeued flit 374400
6
Received nack credit for flit 338233
Requeued flit 338233
8
5
4
Received nack credit for flit 291108
Requeued flit 291108
Received nack credit for flit 325096
Requeued flit 325096
Received nack credit for flit 364173
Requeued flit 364173
4
Received nack credit for flit 375309
Requeued flit 375309
2
3
3
1
Received nack credit for flit 312871
Requeued flit 312871
Received nack credit for flit 357802
Requeued flit 357802
Received nack credit for flit 289263
Requeued flit 289263
Received nack credit for flit 363078
Requeued flit 363078
1
7
Received nack credit for flit 363917
Requeued flit 363917
Received nack credit for flit 280073
Requeued flit 280073
1
2
Received nack credit for flit 376240
Requeued flit 376240
5
1
1
1
Received nack credit for flit 320897
Requeued flit 320897
Received nack credit for flit 359527
Requeued flit 359527
Received nack credit for flit 359402
Requeued flit 359402
Received nack credit for flit 376325
Requeued flit 376325
Received nack credit for flit 291554
Requeued flit 291554
1
6
Received nack credit for flit 330712
Requeued flit 330712
1
Received nack credit for flit 293547
Requeued flit 293547
9
Received nack credit for flit 378323
Requeued flit 378323
1
Received nack credit for flit 272932
Requeued flit 272932
3
Received nack credit for flit 378535
Requeued flit 378535
Received nack credit for flit 360528
Requeued flit 360528
1
1
Received nack credit for flit 361023
Requeued flit 361023
Received nack credit for flit 378144
Requeued flit 378144
2
6
Received nack credit for flit 378182
Requeued flit 378182
5
3
Received nack credit for flit 292637
Requeued flit 292637
Received nack credit for flit 303870
Requeued flit 303870
1
1
Received nack credit for flit 361189
Requeued flit 361189
Received nack credit for flit 361820
Requeued flit 361820
Class 0:
Packet latency average = 653.746
	minimum = 5
	maximum = 3420
Network latency average = 653.744
	minimum = 5
	maximum = 3420
Slowest packet = 250622
Flit latency average = 653.744
	minimum = 5
	maximum = 3420
Slowest flit = 250622
Fragmentation average = 0
	minimum = 0
	maximum = 0
Injected packet rate average = 0.593827
	minimum = 0.5563 (at node 1)
	maximum = 0.6089 (at node 44)
Accepted packet rate average = 0.511641
	minimum = 0.4972 (at node 33)
	maximum = 0.5298 (at node 14)
Injected flit rate average = 0.593827
	minimum = 0.5563 (at node 1)
	maximum = 0.6089 (at node 44)
Accepted flit rate average= 0.511641
	minimum = 0.4972 (at node 33)
	maximum = 0.5298 (at node 14)
Injected packet length average = 1
Accepted packet length average = 1
Total in-flight flits = 52606 (0 measured)
latency change    = 1
throughput change = 1
Average latency for class 0 exceeded 500 cycles. Aborting simulation.
Too many sample periods needed to converge
Simulation unstable, ending ...
Total run time 51.2949
