BEGIN Configuration File: examples/ecc_mesh88_config_1_0.700_link_3
// $Id$

// Copyright (c) 2007-2015, Trustees of The Leland Stanford Junior University
// All rights reserved.
//
// Redistribution and use in source and binary forms, with or without
// modification, are permitted provided that the following conditions are met:
//
// Redistributions of source code must retain the above copyright notice, this
// list of conditions and the following disclaimer.
// Redistributions in binary form must reproduce the above copyright notice,
// this list of conditions and the following disclaimer in the documentation
// and/or other materials provided with the distribution.
//
// THIS SOFTWARE IS PROVIDED BY THE COPYRIGHT HOLDERS AND CONTRIBUTORS "AS IS"
// AND ANY EXPRESS OR IMPLIED WARRANTIES, INCLUDING, BUT NOT LIMITED TO, THE
// IMPLIED WARRANTIES OF MERCHANTABILITY AND FITNESS FOR A PARTICULAR PURPOSE
// ARE DISCLAIMED. IN NO EVENT SHALL THE COPYRIGHT OWNER OR CONTRIBUTORS BE
// LIABLE FOR ANY DIRECT, INDIRECT, INCIDENTAL, SPECIAL, EXEMPLARY, OR
// CONSEQUENTIAL DAMAGES (INCLUDING, BUT NOT LIMITED TO, PROCUREMENT OF
// SUBSTITUTE GOODS OR SERVICES; LOSS OF USE, DATA, OR PROFITS; OR BUSINESS
// INTERRUPTION) HOWEVER CAUSED AND ON ANY THEORY OF LIABILITY, WHETHER IN
// CONTRACT, STRICT LIABILITY, OR TORT (INCLUDING NEGLIGENCE OR OTHERWISE)
// ARISING IN ANY WAY OUT OF THE USE OF THIS SOFTWARE, EVEN IF ADVISED OF THE
// POSSIBILITY OF SUCH DAMAGE.

// Dragonfly
//




vc_buf_size = 256;


wait_for_tail_credit = 0;

//
// Router architecture
//
vc_allocator = separable_input_first; 
sw_allocator = separable_input_first;
alloc_iters  = 1;

credit_delay   = 2;
routing_delay  = 0;
vc_alloc_delay = 1;
sw_alloc_delay = 1;
st_final_delay = 1;

input_speedup     = 1;
output_speedup    = 1;
internal_speedup  = 2.0;


warmup_periods = 3;
sim_count          = 1;

sample_period  = 10000;  


routing_function = dor;
num_vcs     = 2;

priority = none;
traffic       = uniform; 

injection_rate = 0.7;
packet_size = 1;
injection_rate_uses_flits = 1;

topology = mesh;

k  = 8;
n  = 2;

fer = 3;
ecc = link;

watch_out=-;
//watch_file = watch.txt;

ecc = link;

stats_out = examples/ecc_mesh88_config_1_0.700_link_3.m;

END Configuration File: examples/ecc_mesh88_config_1_0.700_link_3
3
5
1
Received nack credit for flit 643
Requeued flit 643
3
Received nack credit for flit 348
Requeued flit 348
2
Received nack credit for flit 979
Requeued flit 979
1
Received nack credit for flit 1158
Requeued flit 1158
Received nack credit for flit 1033
Requeued flit 1033
6
Received nack credit for flit 1546
Requeued flit 1546
Received nack credit for flit 1006
Requeued flit 1006
2
2
4
2
Received nack credit for flit 2213
Requeued flit 2213
Received nack credit for flit 1412
Requeued flit 1412
Received nack credit for flit 1143
Requeued flit 1143
Received nack credit for flit 1934
Requeued flit 1934
3
1
Received nack credit for flit 2633
Requeued flit 2633
Received nack credit for flit 3113
Requeued flit 3113
11
Received nack credit for flit 708
Requeued flit 708
1
Received nack credit for flit 3352
Requeued flit 3352
7
Received nack credit for flit 2707
Requeued flit 2707
4
Received nack credit for flit 3856
Requeued flit 3856
5
Received nack credit for flit 3060
Requeued flit 3060
1
Received nack credit for flit 4595
Requeued flit 4595
1
Received nack credit for flit 4973
Requeued flit 4973
1
2
4
Received nack credit for flit 4970
Requeued flit 4970
Received nack credit for flit 5369
Requeued flit 5369
Received nack credit for flit 3442
Requeued flit 3442
10
9
Received nack credit for flit 2746
Requeued flit 2746
Received nack credit for flit 2097
Requeued flit 2097
2
1
Received nack credit for flit 6139
Requeued flit 6139
5
2
Received nack credit for flit 7292
Requeued flit 7292
7
Received nack credit for flit 5889
Requeued flit 5889
Received nack credit for flit 6219
Requeued flit 6219
1
Received nack credit for flit 4393
Requeued flit 4393
Received nack credit for flit 7719
Requeued flit 7719
3
1
Received nack credit for flit 6889
Requeued flit 6889
Received nack credit for flit 7197
Requeued flit 7197
3
Received nack credit for flit 8878
Requeued flit 8878
3
1
Received nack credit for flit 9402
Requeued flit 9402
Received nack credit for flit 9933
Requeued flit 9933
2
3
Received nack credit for flit 7467
Requeued flit 7467
3
9
Received nack credit for flit 10365
Requeued flit 10365
1
2
Received nack credit for flit 8350
Requeued flit 8350
Received nack credit for flit 4513
Requeued flit 4513
1
6
Received nack credit for flit 9738
Requeued flit 9738
1
Received nack credit for flit 7518
Requeued flit 7518
Received nack credit for flit 9875
Requeued flit 9875
Received nack credit for flit 10128
Requeued flit 10128
Received nack credit for flit 5978
Requeued flit 5978
8
2
Received nack credit for flit 7246
Requeued flit 7246
5
Received nack credit for flit 8653
Requeued flit 8653
1
Received nack credit for flit 9465
Requeued flit 9465
Received nack credit for flit 11766
Requeued flit 11766
5
Received nack credit for flit 9603
Requeued flit 9603
4
1
1
Received nack credit for flit 10450
Requeued flit 10450
5
Received nack credit for flit 12344
Requeued flit 12344
7
Received nack credit for flit 13276
Requeued flit 13276
1
Received nack credit for flit 8501
Requeued flit 8501
Received nack credit for flit 7597
Requeued flit 7597
Received nack credit for flit 13713
Requeued flit 13713
1
Received nack credit for flit 13810
Requeued flit 13810
3
Received nack credit for flit 11979
Requeued flit 11979
7
Received nack credit for flit 7463
Requeued flit 7463
1
1
Received nack credit for flit 14829
Requeued flit 14829
Received nack credit for flit 14228
Requeued flit 14228
5
5
Received nack credit for flit 9340
Requeued flit 9340
1
Received nack credit for flit 11000
Requeued flit 11000
1
Received nack credit for flit 15422
Requeued flit 15422
Received nack credit for flit 14445
Requeued flit 14445
2
4
4
Received nack credit for flit 14694
Requeued flit 14694
3
Received nack credit for flit 13244
Requeued flit 13244
1
Received nack credit for flit 10431
Requeued flit 10431
Received nack credit for flit 13359
Requeued flit 13359
Received nack credit for flit 16229
Requeued flit 16229
4
1
Received nack credit for flit 14911
Requeued flit 14911
Received nack credit for flit 12774
Requeued flit 12774
1
2
1
Received nack credit for flit 13076
Requeued flit 13076
Received nack credit for flit 15764
Requeued flit 15764
Received nack credit for flit 13576
Requeued flit 13576
2
1
Received nack credit for flit 12919
Requeued flit 12919
Received nack credit for flit 17145
Requeued flit 17145
4
Received nack credit for flit 12868
Requeued flit 12868
1
Received nack credit for flit 17115
Requeued flit 17115
1
Received nack credit for flit 17009
Requeued flit 17009
1
1
Received nack credit for flit 18444
Requeued flit 18444
5
Received nack credit for flit 16134
Requeued flit 16134
8
Received nack credit for flit 15391
Requeued flit 15391
7
Received nack credit for flit 11651
Requeued flit 11651
4
2
Received nack credit for flit 13298
Requeued flit 13298
2
Received nack credit for flit 15478
Requeued flit 15478
1
Received nack credit for flit 17186
Requeued flit 17186
Received nack credit for flit 18792
Requeued flit 18792
Received nack credit for flit 19475
Requeued flit 19475
8
3
5
Received nack credit for flit 17038
Requeued flit 17038
Received nack credit for flit 13153
Requeued flit 13153
1
Received nack credit for flit 15000
Requeued flit 15000
1
1
Received nack credit for flit 16173
Requeued flit 16173
7
Received nack credit for flit 17135
Requeued flit 17135
Received nack credit for flit 11772
Requeued flit 11772
Received nack credit for flit 20048
Requeued flit 20048
5
Received nack credit for flit 16225
Requeued flit 16225
1
1
1
3
Received nack credit for flit 20864
Requeued flit 20864
1
Received nack credit for flit 20775
Requeued flit 20775
Received nack credit for flit 14188
Requeued flit 14188
5
Received nack credit for flit 20421
Requeued flit 20421
Received nack credit for flit 12885
Requeued flit 12885
1
7
Received nack credit for flit 20933
Requeued flit 20933
Received nack credit for flit 13790
Requeued flit 13790
3
Received nack credit for flit 17325
Requeued flit 17325
2
Received nack credit for flit 20875
Requeued flit 20875
1
1
Received nack credit for flit 22570
Requeued flit 22570
Received nack credit for flit 20259
Requeued flit 20259
1
7
1
Received nack credit for flit 11578
Requeued flit 11578
Received nack credit for flit 22590
Requeued flit 22590
Received nack credit for flit 23335
Requeued flit 23335
1
1
1
7
1
Received nack credit for flit 19016
Requeued flit 19016
3
Received nack credit for flit 23698
Requeued flit 23698
Received nack credit for flit 21975
Requeued flit 21975
5
Received nack credit for flit 19076
Requeued flit 19076
Received nack credit for flit 23321
Requeued flit 23321
Received nack credit for flit 15559
Requeued flit 15559
Received nack credit for flit 19613
Requeued flit 19613
2
2
Received nack credit for flit 17920
Requeued flit 17920
Received nack credit for flit 24151
Requeued flit 24151
1
Received nack credit for flit 23580
Requeued flit 23580
4
1
Received nack credit for flit 17642
Requeued flit 17642
Received nack credit for flit 24972
Requeued flit 24972
6
1
Received nack credit for flit 16844
Requeued flit 16844
Received nack credit for flit 23888
Requeued flit 23888
1
2
Received nack credit for flit 23939
Requeued flit 23939
Received nack credit for flit 24009
Requeued flit 24009
5
1
1
3
2
Received nack credit for flit 17448
Requeued flit 17448
Received nack credit for flit 26454
Requeued flit 26454
Received nack credit for flit 18780
Requeued flit 18780
Received nack credit for flit 26387
Requeued flit 26387
Received nack credit for flit 27252
Requeued flit 27252
3
2
2
5
Received nack credit for flit 18898
Requeued flit 18898
Received nack credit for flit 17597
Requeued flit 17597
Received nack credit for flit 25284
Requeued flit 25284
Received nack credit for flit 18060
Requeued flit 18060
1
3
Received nack credit for flit 21608
Requeued flit 21608
Received nack credit for flit 20022
Requeued flit 20022
2
Received nack credit for flit 20258
Requeued flit 20258
6
Received nack credit for flit 18443
Requeued flit 18443
4
Received nack credit for flit 19962
Requeued flit 19962
2
1
3
Received nack credit for flit 20597
Requeued flit 20597
Received nack credit for flit 26993
Requeued flit 26993
Received nack credit for flit 29837
Requeued flit 29837
1
1
4
2
8
1
Received nack credit for flit 29331
Requeued flit 29331
Received nack credit for flit 30246
Requeued flit 30246
4
Received nack credit for flit 28474
Requeued flit 28474
Received nack credit for flit 20299
Requeued flit 20299
Received nack credit for flit 27390
Requeued flit 27390
Received nack credit for flit 21811
Requeued flit 21811
Received nack credit for flit 25428
Requeued flit 25428
4
Received nack credit for flit 29141
Requeued flit 29141
1
3
Received nack credit for flit 31401
Requeued flit 31401
Received nack credit for flit 19877
Requeued flit 19877
1
4
Received nack credit for flit 30210
Requeued flit 30210
Received nack credit for flit 28017
Requeued flit 28017
3
5
Received nack credit for flit 29560
Requeued flit 29560
1
Received nack credit for flit 26817
Requeued flit 26817
Received nack credit for flit 32584
Requeued flit 32584
1
1
Received nack credit for flit 32877
Requeued flit 32877
3
4
Received nack credit for flit 33134
Requeued flit 33134
2
Received nack credit for flit 23004
Requeued flit 23004
Received nack credit for flit 28554
Requeued flit 28554
5
Received nack credit for flit 29171
Requeued flit 29171
2
4
8
Received nack credit for flit 24048
Requeued flit 24048
Received nack credit for flit 21198
Requeued flit 21198
Received nack credit for flit 31664
Requeued flit 31664
9
2
Received nack credit for flit 20578
Requeued flit 20578
3
Received nack credit for flit 18812
Requeued flit 18812
Received nack credit for flit 31664
Requeued flit 31664
Received nack credit for flit 33096
Requeued flit 33096
4
Received nack credit for flit 21824
Requeued flit 21824
4
1
Received nack credit for flit 21286
Requeued flit 21286
2
Received nack credit for flit 27853
Requeued flit 27853
Received nack credit for flit 33062
Requeued flit 33062
1
4
Received nack credit for flit 33340
Requeued flit 33340
1
Received nack credit for flit 29717
Requeued flit 29717
1
Received nack credit for flit 27909
Requeued flit 27909
2
Received nack credit for flit 35967
Requeued flit 35967
3
Received nack credit for flit 25121
Requeued flit 25121
1
Received nack credit for flit 27148
Requeued flit 27148
11
Received nack credit for flit 34058
Requeued flit 34058
Received nack credit for flit 16700
Requeued flit 16700
7
8
Received nack credit for flit 22342
Requeued flit 22342
1
1
Received nack credit for flit 21187
Requeued flit 21187
Received nack credit for flit 36257
Requeued flit 36257
Received nack credit for flit 37049
Requeued flit 37049
1
3
6
Received nack credit for flit 32850
Requeued flit 32850
Received nack credit for flit 37117
Requeued flit 37117
Received nack credit for flit 28589
Requeued flit 28589
1
7
Received nack credit for flit 37953
Requeued flit 37953
7
Received nack credit for flit 21666
Requeued flit 21666
1
Received nack credit for flit 37767
Requeued flit 37767
1
Received nack credit for flit 22981
Requeued flit 22981
Received nack credit for flit 30884
Requeued flit 30884
2
Received nack credit for flit 39249
Requeued flit 39249
1
Received nack credit for flit 35748
Requeued flit 35748
1
3
2
Received nack credit for flit 40357
Requeued flit 40357
Received nack credit for flit 27914
Requeued flit 27914
Received nack credit for flit 37365
Requeued flit 37365
5
8
1
Received nack credit for flit 33233
Requeued flit 33233
Received nack credit for flit 26573
Requeued flit 26573
Received nack credit for flit 40740
Requeued flit 40740
3
2
Received nack credit for flit 30412
Requeued flit 30412
2
Received nack credit for flit 39904
Requeued flit 39904
Received nack credit for flit 35271
Requeued flit 35271
3
5
1
Received nack credit for flit 31308
Requeued flit 31308
Received nack credit for flit 27092
Requeued flit 27092
Received nack credit for flit 41464
Requeued flit 41464
1
Received nack credit for flit 42375
Requeued flit 42375
5
6
5
Received nack credit for flit 26754
Requeued flit 26754
Received nack credit for flit 42168
Requeued flit 42168
Received nack credit for flit 26579
Requeued flit 26579
2
3
Received nack credit for flit 29440
Requeued flit 29440
4
Received nack credit for flit 30074
Requeued flit 30074
4
2
Received nack credit for flit 27877
Requeued flit 27877
Received nack credit for flit 32392
Requeued flit 32392
1
Received nack credit for flit 41373
Requeued flit 41373
Received nack credit for flit 44973
Requeued flit 44973
1
Received nack credit for flit 36785
Requeued flit 36785
1
Received nack credit for flit 46760
Requeued flit 46760
1
3
3
Received nack credit for flit 35189
Requeued flit 35189
Received nack credit for flit 47189
Requeued flit 47189
Received nack credit for flit 46716
Requeued flit 46716
3
10
3
Received nack credit for flit 32620
Requeued flit 32620
Received nack credit for flit 22716
Requeued flit 22716
Received nack credit for flit 45167
Requeued flit 45167
1
Received nack credit for flit 47279
Requeued flit 47279
1
2
Received nack credit for flit 47885
Requeued flit 47885
4
3
Received nack credit for flit 48941
Requeued flit 48941
Received nack credit for flit 40649
Requeued flit 40649
6
3
Received nack credit for flit 48877
Requeued flit 48877
Received nack credit for flit 32347
Requeued flit 32347
Received nack credit for flit 31330
Requeued flit 31330
3
4
3
Received nack credit for flit 32940
Requeued flit 32940
Received nack credit for flit 32682
Requeued flit 32682
Received nack credit for flit 43594
Requeued flit 43594
1
2
1
Received nack credit for flit 44346
Requeued flit 44346
Received nack credit for flit 43843
Requeued flit 43843
7
1
Received nack credit for flit 50643
Requeued flit 50643
1
1
Received nack credit for flit 32205
Requeued flit 32205
7
Received nack credit for flit 50865
Requeued flit 50865
Received nack credit for flit 51071
Requeued flit 51071
Received nack credit for flit 51005
Requeued flit 51005
Received nack credit for flit 29481
Requeued flit 29481
1
2
Received nack credit for flit 51486
Requeued flit 51486
9
Received nack credit for flit 51355
Requeued flit 51355
Received nack credit for flit 28037
Requeued flit 28037
3
4
Received nack credit for flit 42044
Requeued flit 42044
Received nack credit for flit 34758
Requeued flit 34758
4
1
1
Received nack credit for flit 36109
Requeued flit 36109
4
Received nack credit for flit 52724
Requeued flit 52724
7
1
Received nack credit for flit 46249
Requeued flit 46249
3
2
3
Received nack credit for flit 30811
Requeued flit 30811
Received nack credit for flit 36391
Requeued flit 36391
Received nack credit for flit 45255
Requeued flit 45255
3
Received nack credit for flit 36007
Requeued flit 36007
Received nack credit for flit 46028
Requeued flit 46028
Received nack credit for flit 39186
Requeued flit 39186
Received nack credit for flit 47788
Requeued flit 47788
1
2
4
1
Received nack credit for flit 45847
Requeued flit 45847
Received nack credit for flit 46159
Requeued flit 46159
Received nack credit for flit 36370
Requeued flit 36370
Received nack credit for flit 53380
Requeued flit 53380
2
Received nack credit for flit 46910
Requeued flit 46910
6
6
1
Received nack credit for flit 36711
Requeued flit 36711
Received nack credit for flit 55320
Requeued flit 55320
1
1
Received nack credit for flit 55627
Requeued flit 55627
Received nack credit for flit 54886
Requeued flit 54886
4
Received nack credit for flit 35667
Requeued flit 35667
1
Received nack credit for flit 51426
Requeued flit 51426
1
1
Received nack credit for flit 49640
Requeued flit 49640
Received nack credit for flit 57082
Requeued flit 57082
5
1
Received nack credit for flit 32936
Requeued flit 32936
2
6
Received nack credit for flit 49820
Requeued flit 49820
3
2
Received nack credit for flit 53152
Requeued flit 53152
Received nack credit for flit 36310
Requeued flit 36310
Received nack credit for flit 43762
Requeued flit 43762
Received nack credit for flit 57600
Requeued flit 57600
8
4
9
Received nack credit for flit 33808
Requeued flit 33808
Received nack credit for flit 42648
Requeued flit 42648
Received nack credit for flit 40041
Requeued flit 40041
1
4
2
Received nack credit for flit 49600
Requeued flit 49600
Received nack credit for flit 52433
Requeued flit 52433
Received nack credit for flit 58839
Requeued flit 58839
1
Received nack credit for flit 59025
Requeued flit 59025
2
1
2
Received nack credit for flit 52819
Requeued flit 52819
Received nack credit for flit 59425
Requeued flit 59425
Received nack credit for flit 54394
Requeued flit 54394
5
1
5
Received nack credit for flit 42420
Requeued flit 42420
Received nack credit for flit 53000
Requeued flit 53000
Received nack credit for flit 49477
Requeued flit 49477
6
1
Received nack credit for flit 37740
Requeued flit 37740
Received nack credit for flit 59867
Requeued flit 59867
1
Received nack credit for flit 53792
Requeued flit 53792
1
1
2
Received nack credit for flit 59846
Requeued flit 59846
Received nack credit for flit 61119
Requeued flit 61119
Received nack credit for flit 60217
Requeued flit 60217
2
7
9
Received nack credit for flit 60056
Requeued flit 60056
Received nack credit for flit 38287
Requeued flit 38287
Received nack credit for flit 34449
Requeued flit 34449
4
8
Received nack credit for flit 42297
Requeued flit 42297
Received nack credit for flit 31261
Requeued flit 31261
1
5
Received nack credit for flit 49874
Requeued flit 49874
Received nack credit for flit 39081
Requeued flit 39081
4
3
6
Received nack credit for flit 38923
Requeued flit 38923
Received nack credit for flit 46015
Requeued flit 46015
6
Received nack credit for flit 39509
Requeued flit 39509
1
Received nack credit for flit 46602
Requeued flit 46602
Received nack credit for flit 62696
Requeued flit 62696
5
1
Received nack credit for flit 47993
Requeued flit 47993
1
Received nack credit for flit 63410
Requeued flit 63410
2
Received nack credit for flit 61925
Requeued flit 61925
Received nack credit for flit 63374
Requeued flit 63374
3
Received nack credit for flit 40864
Requeued flit 40864
3
7
2
Received nack credit for flit 47931
Requeued flit 47931
Received nack credit for flit 48758
Requeued flit 48758
Received nack credit for flit 54490
Requeued flit 54490
1
2
Received nack credit for flit 51962
Requeued flit 51962
Received nack credit for flit 64526
Requeued flit 64526
5
2
2
1
Received nack credit for flit 52840
Requeued flit 52840
Received nack credit for flit 48162
Requeued flit 48162
Received nack credit for flit 56691
Requeued flit 56691
Received nack credit for flit 63630
Requeued flit 63630
4
Received nack credit for flit 46794
Requeued flit 46794
7
4
4
4
2
4
Received nack credit for flit 49915
Requeued flit 49915
Received nack credit for flit 40664
Requeued flit 40664
Received nack credit for flit 42620
Requeued flit 42620
3
Received nack credit for flit 63815
Requeued flit 63815
Received nack credit for flit 54330
Requeued flit 54330
Received nack credit for flit 51473
Requeued flit 51473
Received nack credit for flit 65329
Requeued flit 65329
3
1
Received nack credit for flit 65329
Requeued flit 65329
Received nack credit for flit 53914
Requeued flit 53914
2
Received nack credit for flit 67753
Requeued flit 67753
6
3
Received nack credit for flit 52040
Requeued flit 52040
1
Received nack credit for flit 59473
Requeued flit 59473
Received nack credit for flit 60760
Requeued flit 60760
6
3
6
Received nack credit for flit 42900
Requeued flit 42900
Received nack credit for flit 48669
Requeued flit 48669
Received nack credit for flit 42656
Requeued flit 42656
2
1
Received nack credit for flit 65952
Requeued flit 65952
5
1
Received nack credit for flit 55055
Requeued flit 55055
Received nack credit for flit 43679
Requeued flit 43679
2
Received nack credit for flit 64140
Requeued flit 64140
Received nack credit for flit 57880
Requeued flit 57880
2
1
3
9
Received nack credit for flit 52778
Requeued flit 52778
Received nack credit for flit 66581
Requeued flit 66581
3
Received nack credit for flit 38444
Requeued flit 38444
Received nack credit for flit 45435
Requeued flit 45435
Received nack credit for flit 61084
Requeued flit 61084
1
1
4
8
Received nack credit for flit 65057
Requeued flit 65057
Received nack credit for flit 57077
Requeued flit 57077
1
6
Received nack credit for flit 35724
Requeued flit 35724
Received nack credit for flit 66308
Requeued flit 66308
Received nack credit for flit 43299
Requeued flit 43299
Received nack credit for flit 71090
Requeued flit 71090
5
3
Received nack credit for flit 44835
Requeued flit 44835
Received nack credit for flit 46606
Requeued flit 46606
2
1
6
1
Received nack credit for flit 65694
Requeued flit 65694
Received nack credit for flit 71701
Requeued flit 71701
1
Received nack credit for flit 49512
Requeued flit 49512
Received nack credit for flit 71950
Requeued flit 71950
8
Received nack credit for flit 71871
Requeued flit 71871
Received nack credit for flit 42818
Requeued flit 42818
7
1
Received nack credit for flit 56764
Requeued flit 56764
Received nack credit for flit 64236
Requeued flit 64236
3
Received nack credit for flit 62988
Requeued flit 62988
3
1
Received nack credit for flit 61133
Requeued flit 61133
Received nack credit for flit 68191
Requeued flit 68191
1
2
1
10
Received nack credit for flit 73477
Requeued flit 73477
Received nack credit for flit 68806
Requeued flit 68806
1
Received nack credit for flit 41807
Requeued flit 41807
Received nack credit for flit 73621
Requeued flit 73621
4
4
Received nack credit for flit 73883
Requeued flit 73883
5
4
Received nack credit for flit 63896
Requeued flit 63896
Received nack credit for flit 47065
Requeued flit 47065
Received nack credit for flit 59755
Requeued flit 59755
Received nack credit for flit 43180
Requeued flit 43180
1
Received nack credit for flit 64105
Requeued flit 64105
3
Received nack credit for flit 58193
Requeued flit 58193
5
Received nack credit for flit 61465
Requeued flit 61465
5
Received nack credit for flit 50007
Requeued flit 50007
3
Received nack credit for flit 57183
Requeued flit 57183
2
Received nack credit for flit 66406
Requeued flit 66406
7
1
3
Received nack credit for flit 40783
Requeued flit 40783
Received nack credit for flit 67715
Requeued flit 67715
2
3
Received nack credit for flit 66273
Requeued flit 66273
1
Received nack credit for flit 66796
Requeued flit 66796
2
Received nack credit for flit 76471
Requeued flit 76471
Received nack credit for flit 75554
Requeued flit 75554
Received nack credit for flit 75259
Requeued flit 75259
1
1
Received nack credit for flit 72115
Requeued flit 72115
Received nack credit for flit 77652
Requeued flit 77652
7
1
Received nack credit for flit 49149
Requeued flit 49149
Received nack credit for flit 78037
Requeued flit 78037
3
7
3
2
Received nack credit for flit 53659
Requeued flit 53659
Received nack credit for flit 58049
Requeued flit 58049
1
Received nack credit for flit 53514
Requeued flit 53514
Received nack credit for flit 77313
Requeued flit 77313
2
1
Received nack credit for flit 68386
Requeued flit 68386
7
Received nack credit for flit 60080
Requeued flit 60080
Received nack credit for flit 62465
Requeued flit 62465
1
Received nack credit for flit 46194
Requeued flit 46194
Received nack credit for flit 76897
Requeued flit 76897
1
3
2
5
Received nack credit for flit 68471
Requeued flit 68471
Received nack credit for flit 64172
Requeued flit 64172
Received nack credit for flit 60678
Requeued flit 60678
Received nack credit for flit 64510
Requeued flit 64510
3
Received nack credit for flit 77691
Requeued flit 77691
2
Received nack credit for flit 79829
Requeued flit 79829
1
2
Received nack credit for flit 63880
Requeued flit 63880
Received nack credit for flit 53315
Requeued flit 53315
2
Received nack credit for flit 67182
Requeued flit 67182
1
Received nack credit for flit 81313
Requeued flit 81313
6
5
Received nack credit for flit 68167
Requeued flit 68167
2
Received nack credit for flit 57318
Requeued flit 57318
Received nack credit for flit 80083
Requeued flit 80083
1
2
8
Received nack credit for flit 83154
Requeued flit 83154
Received nack credit for flit 78475
Requeued flit 78475
Received nack credit for flit 54102
Requeued flit 54102
1
5
1
Received nack credit for flit 83359
Requeued flit 83359
Received nack credit for flit 66567
Requeued flit 66567
Received nack credit for flit 52296
Requeued flit 52296
4
2
1
Received nack credit for flit 74551
Requeued flit 74551
Received nack credit for flit 63125
Requeued flit 63125
4
Received nack credit for flit 84543
Requeued flit 84543
Received nack credit for flit 73970
Requeued flit 73970
1
Received nack credit for flit 67711
Requeued flit 67711
4
1
5
1
Received nack credit for flit 59545
Requeued flit 59545
Received nack credit for flit 67631
Requeued flit 67631
8
Received nack credit for flit 73109
Requeued flit 73109
Received nack credit for flit 85729
Requeued flit 85729
2
Received nack credit for flit 48884
Requeued flit 48884
9
1
Received nack credit for flit 64702
Requeued flit 64702
Received nack credit for flit 86216
Requeued flit 86216
Received nack credit for flit 53414
Requeued flit 53414
1
1
Received nack credit for flit 67850
Requeued flit 67850
Received nack credit for flit 86506
Requeued flit 86506
2
1
Received nack credit for flit 85359
Requeued flit 85359
Received nack credit for flit 87008
Requeued flit 87008
2
5
Received nack credit for flit 85705
Requeued flit 85705
Received nack credit for flit 73887
Requeued flit 73887
3
Received nack credit for flit 75342
Requeued flit 75342
7
1
2
Received nack credit for flit 78326
Requeued flit 78326
6
Received nack credit for flit 83415
Requeued flit 83415
Received nack credit for flit 88022
Requeued flit 88022
1
3
Received nack credit for flit 55358
Requeued flit 55358
Received nack credit for flit 88408
Requeued flit 88408
3
Received nack credit for flit 66630
Requeued flit 66630
1
2
Received nack credit for flit 74207
Requeued flit 74207
Received nack credit for flit 87648
Requeued flit 87648
Received nack credit for flit 60877
Requeued flit 60877
1
1
Received nack credit for flit 89471
Requeued flit 89471
1
Received nack credit for flit 89703
Requeued flit 89703
Received nack credit for flit 89733
Requeued flit 89733
3
5
1
Received nack credit for flit 59189
Requeued flit 59189
Received nack credit for flit 73643
Requeued flit 73643
Received nack credit for flit 87682
Requeued flit 87682
3
4
Received nack credit for flit 58544
Requeued flit 58544
8
Received nack credit for flit 75521
Requeued flit 75521
Received nack credit for flit 56855
Requeued flit 56855
5
6
Received nack credit for flit 60501
Requeued flit 60501
7
Received nack credit for flit 62814
Requeued flit 62814
Received nack credit for flit 61759
Requeued flit 61759
7
3
Received nack credit for flit 54007
Requeued flit 54007
Received nack credit for flit 83894
Requeued flit 83894
6
2
Received nack credit for flit 59012
Requeued flit 59012
Received nack credit for flit 63921
Requeued flit 63921
6
4
Received nack credit for flit 76633
Requeued flit 76633
3
6
Received nack credit for flit 80405
Requeued flit 80405
Received nack credit for flit 73944
Requeued flit 73944
Received nack credit for flit 50119
Requeued flit 50119
6
2
4
1
5
Received nack credit for flit 62751
Requeued flit 62751
Received nack credit for flit 76082
Requeued flit 76082
1
Received nack credit for flit 94561
Requeued flit 94561
Received nack credit for flit 67904
Requeued flit 67904
2
Received nack credit for flit 94257
Requeued flit 94257
2
2
Received nack credit for flit 92521
Requeued flit 92521
Received nack credit for flit 89586
Requeued flit 89586
1
Received nack credit for flit 92700
Requeued flit 92700
Received nack credit for flit 88090
Requeued flit 88090
7
Received nack credit for flit 95066
Requeued flit 95066
Received nack credit for flit 70151
Requeued flit 70151
5
Received nack credit for flit 79193
Requeued flit 79193
1
7
Received nack credit for flit 93768
Requeued flit 93768
Received nack credit for flit 65386
Requeued flit 65386
11
6
2
Received nack credit for flit 52064
Requeued flit 52064
Received nack credit for flit 92124
Requeued flit 92124
Received nack credit for flit 78406
Requeued flit 78406
4
1
Received nack credit for flit 61703
Requeued flit 61703
Received nack credit for flit 91511
Requeued flit 91511
1
6
Received nack credit for flit 91709
Requeued flit 91709
Received nack credit for flit 79143
Requeued flit 79143
1
1
5
Received nack credit for flit 77676
Requeued flit 77676
Received nack credit for flit 87172
Requeued flit 87172
1
Received nack credit for flit 61934
Requeued flit 61934
Received nack credit for flit 98210
Requeued flit 98210
4
1
Received nack credit for flit 92981
Requeued flit 92981
3
5
Received nack credit for flit 96511
Requeued flit 96511
1
Received nack credit for flit 88361
Requeued flit 88361
Received nack credit for flit 66655
Requeued flit 66655
Received nack credit for flit 98935
Requeued flit 98935
3
Received nack credit for flit 79353
Requeued flit 79353
3
1
4
8
Received nack credit for flit 74287
Requeued flit 74287
Received nack credit for flit 63377
Requeued flit 63377
Received nack credit for flit 99591
Requeued flit 99591
2
4
Received nack credit for flit 51611
Requeued flit 51611
3
Received nack credit for flit 87284
Requeued flit 87284
Received nack credit for flit 82048
Requeued flit 82048
Received nack credit for flit 84535
Requeued flit 84535
5
Received nack credit for flit 63623
Requeued flit 63623
1
4
1
Received nack credit for flit 88414
Requeued flit 88414
Received nack credit for flit 90889
Requeued flit 90889
Received nack credit for flit 100945
Requeued flit 100945
1
1
2
Received nack credit for flit 101630
Requeued flit 101630
Received nack credit for flit 99462
Requeued flit 99462
1
Received nack credit for flit 80312
Requeued flit 80312
1
2
Received nack credit for flit 101737
Requeued flit 101737
Received nack credit for flit 97742
Requeued flit 97742
Received nack credit for flit 80382
Requeued flit 80382
4
3
Received nack credit for flit 64615
Requeued flit 64615
Received nack credit for flit 77126
Requeued flit 77126
4
8
Received nack credit for flit 84430
Requeued flit 84430
1
Received nack credit for flit 55307
Requeued flit 55307
3
Received nack credit for flit 103110
Requeued flit 103110
Received nack credit for flit 77329
Requeued flit 77329
1
3
2
Received nack credit for flit 103515
Requeued flit 103515
Received nack credit for flit 88433
Requeued flit 88433
Received nack credit for flit 90549
Requeued flit 90549
1
6
Received nack credit for flit 103574
Requeued flit 103574
5
Received nack credit for flit 77738
Requeued flit 77738
Received nack credit for flit 69891
Requeued flit 69891
1
Received nack credit for flit 97297
Requeued flit 97297
7
2
2
Received nack credit for flit 65799
Requeued flit 65799
Received nack credit for flit 102746
Requeued flit 102746
Received nack credit for flit 102274
Requeued flit 102274
1
Received nack credit for flit 100057
Requeued flit 100057
9
Received nack credit for flit 54333
Requeued flit 54333
2
2
Received nack credit for flit 95818
Requeued flit 95818
Received nack credit for flit 96122
Requeued flit 96122
6
3
2
Received nack credit for flit 78182
Requeued flit 78182
Received nack credit for flit 106419
Requeued flit 106419
Received nack credit for flit 83171
Requeued flit 83171
6
Received nack credit for flit 66544
Requeued flit 66544
3
2
Received nack credit for flit 101785
Requeued flit 101785
1
Received nack credit for flit 104862
Requeued flit 104862
5
1
Received nack credit for flit 101860
Requeued flit 101860
Received nack credit for flit 73087
Requeued flit 73087
1
1
3
Received nack credit for flit 108233
Requeued flit 108233
Received nack credit for flit 97564
Requeued flit 97564
Received nack credit for flit 107968
Requeued flit 107968
3
1
2
1
2
1
Received nack credit for flit 95644
Requeued flit 95644
Received nack credit for flit 108420
Requeued flit 108420
Received nack credit for flit 96789
Requeued flit 96789
Received nack credit for flit 86221
Requeued flit 86221
Received nack credit for flit 73180
Requeued flit 73180
Received nack credit for flit 108431
Requeued flit 108431
1
Received nack credit for flit 102562
Requeued flit 102562
10
Received nack credit for flit 59916
Requeued flit 59916
4
Received nack credit for flit 69238
Requeued flit 69238
1
6
Received nack credit for flit 87613
Requeued flit 87613
Received nack credit for flit 72321
Requeued flit 72321
1
8
Received nack credit for flit 110531
Requeued flit 110531
Received nack credit for flit 79075
Requeued flit 79075
3
3
Received nack credit for flit 107386
Requeued flit 107386
Received nack credit for flit 91079
Requeued flit 91079
1
7
5
Received nack credit for flit 89056
Requeued flit 89056
Received nack credit for flit 57576
Requeued flit 57576
Received nack credit for flit 72937
Requeued flit 72937
3
Received nack credit for flit 84968
Requeued flit 84968
3
5
6
Received nack credit for flit 93849
Requeued flit 93849
3
Received nack credit for flit 88572
Requeued flit 88572
Received nack credit for flit 64266
Requeued flit 64266
7
Received nack credit for flit 110341
Requeued flit 110341
3
Received nack credit for flit 74017
Requeued flit 74017
1
Received nack credit for flit 76546
Requeued flit 76546
4
3
Received nack credit for flit 109250
Requeued flit 109250
Received nack credit for flit 72073
Requeued flit 72073
Received nack credit for flit 90358
Requeued flit 90358
9
4
Received nack credit for flit 62950
Requeued flit 62950
Received nack credit for flit 77041
Requeued flit 77041
1
1
2
1
Received nack credit for flit 114007
Requeued flit 114007
6
Received nack credit for flit 111465
Requeued flit 111465
Received nack credit for flit 114166
Requeued flit 114166
Received nack credit for flit 97012
Requeued flit 97012
Received nack credit for flit 76469
Requeued flit 76469
3
3
4
8
3
2
Received nack credit for flit 73527
Requeued flit 73527
Received nack credit for flit 112257
Requeued flit 112257
Received nack credit for flit 91098
Requeued flit 91098
1
Received nack credit for flit 85345
Requeued flit 85345
Received nack credit for flit 87355
Requeued flit 87355
Received nack credit for flit 64439
Requeued flit 64439
Received nack credit for flit 113772
Requeued flit 113772
7
Received nack credit for flit 72091
Requeued flit 72091
1
3
Received nack credit for flit 93728
Requeued flit 93728
Received nack credit for flit 92723
Requeued flit 92723
5
Received nack credit for flit 96104
Requeued flit 96104
1
6
4
1
1
Received nack credit for flit 75125
Requeued flit 75125
Received nack credit for flit 77916
Requeued flit 77916
Received nack credit for flit 118184
Requeued flit 118184
Received nack credit for flit 114334
Requeued flit 114334
6
Received nack credit for flit 118401
Requeued flit 118401
4
Received nack credit for flit 76893
Requeued flit 76893
1
4
Received nack credit for flit 101175
Requeued flit 101175
Received nack credit for flit 96289
Requeued flit 96289
Received nack credit for flit 96996
Requeued flit 96996
5
Received nack credit for flit 102937
Requeued flit 102937
4
4
Received nack credit for flit 89587
Requeued flit 89587
Received nack credit for flit 76498
Requeued flit 76498
3
1
Received nack credit for flit 107934
Requeued flit 107934
3
Received nack credit for flit 104445
Requeued flit 104445
Received nack credit for flit 109650
Requeued flit 109650
1
3
Received nack credit for flit 120712
Requeued flit 120712
1
Received nack credit for flit 98546
Requeued flit 98546
Received nack credit for flit 98435
Requeued flit 98435
1
Received nack credit for flit 114585
Requeued flit 114585
4
1
3
3
Received nack credit for flit 121378
Requeued flit 121378
Received nack credit for flit 105135
Requeued flit 105135
3
2
Received nack credit for flit 106357
Requeued flit 106357
2
10
3
Received nack credit for flit 111809
Requeued flit 111809
Received nack credit for flit 110008
Requeued flit 110008
Received nack credit for flit 121941
Requeued flit 121941
Received nack credit for flit 115253
Requeued flit 115253
Received nack credit for flit 111017
Requeued flit 111017
Received nack credit for flit 63567
Requeued flit 63567
2
3
Received nack credit for flit 116305
Requeued flit 116305
6
Received nack credit for flit 91989
Requeued flit 91989
7
6
Received nack credit for flit 74360
Requeued flit 74360
Received nack credit for flit 71052
Requeued flit 71052
Received nack credit for flit 82078
Requeued flit 82078
1
Received nack credit for flit 107976
Requeued flit 107976
1
1
Received nack credit for flit 124088
Requeued flit 124088
Received nack credit for flit 108086
Requeued flit 108086
1
3
1
2
1
Received nack credit for flit 76307
Requeued flit 76307
Received nack credit for flit 115666
Requeued flit 115666
1
Received nack credit for flit 119231
Requeued flit 119231
Received nack credit for flit 119338
Requeued flit 119338
1
Received nack credit for flit 109843
Requeued flit 109843
5
Received nack credit for flit 101716
Requeued flit 101716
Received nack credit for flit 122626
Requeued flit 122626
4
1
Received nack credit for flit 101285
Requeued flit 101285
8
1
7
Received nack credit for flit 80191
Requeued flit 80191
Received nack credit for flit 118699
Requeued flit 118699
Received nack credit for flit 123230
Requeued flit 123230
4
Received nack credit for flit 71469
Requeued flit 71469
4
Received nack credit for flit 77383
Requeued flit 77383
Received nack credit for flit 105808
Requeued flit 105808
4
Received nack credit for flit 81218
Requeued flit 81218
3
Received nack credit for flit 99163
Requeued flit 99163
2
Received nack credit for flit 93420
Requeued flit 93420
Received nack credit for flit 102201
Requeued flit 102201
5
Received nack credit for flit 84610
Requeued flit 84610
5
2
2
5
Received nack credit for flit 106457
Requeued flit 106457
Received nack credit for flit 108957
Requeued flit 108957
Received nack credit for flit 116292
Requeued flit 116292
1
Received nack credit for flit 80148
Requeued flit 80148
5
6
Received nack credit for flit 127171
Requeued flit 127171
Received nack credit for flit 84660
Requeued flit 84660
1
2
Received nack credit for flit 76699
Requeued flit 76699
Received nack credit for flit 126538
Requeued flit 126538
Received nack credit for flit 127291
Requeued flit 127291
1
1
1
Received nack credit for flit 104970
Requeued flit 104970
10
3
Received nack credit for flit 128249
Requeued flit 128249
Received nack credit for flit 87549
Requeued flit 87549
Received nack credit for flit 128175
Requeued flit 128175
2
8
Received nack credit for flit 91663
Requeued flit 91663
5
Received nack credit for flit 69990
Requeued flit 69990
Received nack credit for flit 124988
Requeued flit 124988
1
Received nack credit for flit 126676
Requeued flit 126676
Received nack credit for flit 84912
Requeued flit 84912
2
8
1
Received nack credit for flit 129038
Requeued flit 129038
Received nack credit for flit 127445
Requeued flit 127445
Received nack credit for flit 105115
Requeued flit 105115
9
1
Received nack credit for flit 71682
Requeued flit 71682
2
Received nack credit for flit 107351
Requeued flit 107351
3
Received nack credit for flit 106339
Requeued flit 106339
Received nack credit for flit 84924
Requeued flit 84924
2
Received nack credit for flit 119059
Requeued flit 119059
7
1
2
Received nack credit for flit 83693
Requeued flit 83693
Received nack credit for flit 131090
Requeued flit 131090
Received nack credit for flit 94278
Requeued flit 94278
2
3
1
2
Received nack credit for flit 101993
Requeued flit 101993
Received nack credit for flit 92862
Requeued flit 92862
3
Received nack credit for flit 113951
Requeued flit 113951
Received nack credit for flit 125663
Requeued flit 125663
1
Received nack credit for flit 106526
Requeued flit 106526
Received nack credit for flit 131915
Requeued flit 131915
4
Received nack credit for flit 79583
Requeued flit 79583
2
1
Received nack credit for flit 114313
Requeued flit 114313
Received nack credit for flit 133241
Requeued flit 133241
3
Received nack credit for flit 131926
Requeued flit 131926
3
Received nack credit for flit 96757
Requeued flit 96757
4
4
Received nack credit for flit 92674
Requeued flit 92674
2
Received nack credit for flit 86773
Requeued flit 86773
3
2
Received nack credit for flit 95487
Requeued flit 95487
Received nack credit for flit 90712
Requeued flit 90712
Received nack credit for flit 132484
Requeued flit 132484
4
1
Received nack credit for flit 93536
Requeued flit 93536
Received nack credit for flit 111905
Requeued flit 111905
1
3
2
Received nack credit for flit 136765
Requeued flit 136765
4
Received nack credit for flit 92895
Requeued flit 92895
Received nack credit for flit 85386
Requeued flit 85386
Received nack credit for flit 136742
Requeued flit 136742
1
Received nack credit for flit 137700
Requeued flit 137700
1
6
1
Received nack credit for flit 138351
Requeued flit 138351
Received nack credit for flit 85219
Requeued flit 85219
Received nack credit for flit 138462
Requeued flit 138462
8
Received nack credit for flit 85870
Requeued flit 85870
1
2
5
Received nack credit for flit 130347
Requeued flit 130347
4
Received nack credit for flit 101042
Requeued flit 101042
Received nack credit for flit 94524
Requeued flit 94524
Received nack credit for flit 117280
Requeued flit 117280
6
3
2
Received nack credit for flit 97535
Requeued flit 97535
3
1
Received nack credit for flit 139100
Requeued flit 139100
Received nack credit for flit 131980
Requeued flit 131980
Received nack credit for flit 105517
Requeued flit 105517
Received nack credit for flit 138248
Requeued flit 138248
1
3
Received nack credit for flit 131062
Requeued flit 131062
Received nack credit for flit 137510
Requeued flit 137510
10
1
5
Received nack credit for flit 69990
Requeued flit 69990
4
Received nack credit for flit 140632
Requeued flit 140632
Received nack credit for flit 104518
Requeued flit 104518
1
Received nack credit for flit 91267
Requeued flit 91267
Received nack credit for flit 141370
Requeued flit 141370
1
Received nack credit for flit 142096
Requeued flit 142096
1
5
8
4
Received nack credit for flit 87491
Requeued flit 87491
Received nack credit for flit 96948
Requeued flit 96948
Received nack credit for flit 133730
Requeued flit 133730
5
Received nack credit for flit 140603
Requeued flit 140603
Received nack credit for flit 100817
Requeued flit 100817
1
1
3
4
Received nack credit for flit 143123
Requeued flit 143123
1
Received nack credit for flit 143150
Requeued flit 143150
Received nack credit for flit 102336
Requeued flit 102336
Received nack credit for flit 92453
Requeued flit 92453
Received nack credit for flit 120375
Requeued flit 120375
1
Received nack credit for flit 140441
Requeued flit 140441
4
1
4
2
Received nack credit for flit 114526
Requeued flit 114526
Received nack credit for flit 144261
Requeued flit 144261
2
Received nack credit for flit 139973
Requeued flit 139973
Received nack credit for flit 132869
Requeued flit 132869
4
Received nack credit for flit 140045
Requeued flit 140045
5
Received nack credit for flit 122260
Requeued flit 122260
1
Received nack credit for flit 119261
Requeued flit 119261
2
Received nack credit for flit 140442
Requeued flit 140442
Received nack credit for flit 142319
Requeued flit 142319
3
1
Received nack credit for flit 100541
Requeued flit 100541
2
4
Received nack credit for flit 143956
Requeued flit 143956
3
Received nack credit for flit 101200
Requeued flit 101200
Received nack credit for flit 103139
Requeued flit 103139
Received nack credit for flit 108286
Requeued flit 108286
1
Received nack credit for flit 136757
Requeued flit 136757
1
Received nack credit for flit 146536
Requeued flit 146536
2
Received nack credit for flit 123802
Requeued flit 123802
1
1
3
Received nack credit for flit 127678
Requeued flit 127678
Received nack credit for flit 147582
Requeued flit 147582
4
Received nack credit for flit 106371
Requeued flit 106371
Received nack credit for flit 103320
Requeued flit 103320
5
6
Received nack credit for flit 94947
Requeued flit 94947
Received nack credit for flit 123540
Requeued flit 123540
1
1
Received nack credit for flit 138027
Requeued flit 138027
Received nack credit for flit 139800
Requeued flit 139800
6
6
1
Received nack credit for flit 113349
Requeued flit 113349
1
Received nack credit for flit 148358
Requeued flit 148358
Received nack credit for flit 95917
Requeued flit 95917
8
Received nack credit for flit 126902
Requeued flit 126902
1
1
7
Received nack credit for flit 109589
Requeued flit 109589
Received nack credit for flit 148611
Requeued flit 148611
Received nack credit for flit 149996
Requeued flit 149996
Received nack credit for flit 115157
Requeued flit 115157
2
7
3
Received nack credit for flit 138581
Requeued flit 138581
2
7
Received nack credit for flit 94089
Requeued flit 94089
Received nack credit for flit 94363
Requeued flit 94363
Received nack credit for flit 130887
Requeued flit 130887
Received nack credit for flit 84970
Requeued flit 84970
5
4
Received nack credit for flit 123564
Requeued flit 123564
7
1
Received nack credit for flit 147766
Requeued flit 147766
Received nack credit for flit 129688
Requeued flit 129688
Received nack credit for flit 93789
Requeued flit 93789
2
3
Received nack credit for flit 111561
Requeued flit 111561
4
8
Received nack credit for flit 147976
Requeued flit 147976
2
1
Received nack credit for flit 102262
Requeued flit 102262
Received nack credit for flit 84373
Requeued flit 84373
Received nack credit for flit 114099
Requeued flit 114099
Received nack credit for flit 129519
Requeued flit 129519
3
Received nack credit for flit 134504
Requeued flit 134504
2
Received nack credit for flit 134964
Requeued flit 134964
1
Received nack credit for flit 131968
Requeued flit 131968
1
Received nack credit for flit 154859
Requeued flit 154859
2
1
1
5
Received nack credit for flit 132289
Requeued flit 132289
Received nack credit for flit 132970
Requeued flit 132970
11
1
Received nack credit for flit 145098
Requeued flit 145098
Received nack credit for flit 111792
Requeued flit 111792
6
Received nack credit for flit 79512
Requeued flit 79512
Received nack credit for flit 150563
Requeued flit 150563
2
Received nack credit for flit 129306
Requeued flit 129306
Received nack credit for flit 111658
Requeued flit 111658
1
7
Received nack credit for flit 155038
Requeued flit 155038
2
Received nack credit for flit 94518
Requeued flit 94518
Received nack credit for flit 123710
Requeued flit 123710
6
2
Received nack credit for flit 90443
Requeued flit 90443
Received nack credit for flit 132708
Requeued flit 132708
1
Received nack credit for flit 157063
Requeued flit 157063
2
1
3
Received nack credit for flit 147626
Requeued flit 147626
Received nack credit for flit 136641
Requeued flit 136641
5
4
Received nack credit for flit 104202
Requeued flit 104202
Received nack credit for flit 156103
Requeued flit 156103
Received nack credit for flit 98963
Requeued flit 98963
2
2
Received nack credit for flit 117888
Requeued flit 117888
Received nack credit for flit 152892
Requeued flit 152892
1
1
Received nack credit for flit 159526
Requeued flit 159526
10
Received nack credit for flit 159743
Requeued flit 159743
1
1
5
1
Received nack credit for flit 90018
Requeued flit 90018
3
Received nack credit for flit 155579
Requeued flit 155579
1
Received nack credit for flit 151084
Requeued flit 151084
Received nack credit for flit 113690
Requeued flit 113690
3
Received nack credit for flit 142784
Requeued flit 142784
Received nack credit for flit 160269
Requeued flit 160269
2
Received nack credit for flit 148710
Requeued flit 148710
Received nack credit for flit 158505
Requeued flit 158505
Received nack credit for flit 115198
Requeued flit 115198
1
1
4
Received nack credit for flit 138489
Requeued flit 138489
Received nack credit for flit 138521
Requeued flit 138521
Received nack credit for flit 114234
Requeued flit 114234
3
Received nack credit for flit 113083
Requeued flit 113083
2
10
Received nack credit for flit 109903
Requeued flit 109903
1
3
Received nack credit for flit 92095
Requeued flit 92095
Received nack credit for flit 160803
Requeued flit 160803
Received nack credit for flit 133020
Requeued flit 133020
5
3
1
1
Received nack credit for flit 128945
Requeued flit 128945
Received nack credit for flit 140292
Requeued flit 140292
Received nack credit for flit 111829
Requeued flit 111829
Received nack credit for flit 148220
Requeued flit 148220
1
Received nack credit for flit 141009
Requeued flit 141009
1
1
Received nack credit for flit 158350
Requeued flit 158350
Received nack credit for flit 162101
Requeued flit 162101
3
6
Received nack credit for flit 107710
Requeued flit 107710
Received nack credit for flit 120330
Requeued flit 120330
1
9
1
Received nack credit for flit 143791
Requeued flit 143791
Received nack credit for flit 92414
Requeued flit 92414
6
Received nack credit for flit 143572
Requeued flit 143572
Received nack credit for flit 161389
Requeued flit 161389
7
1
4
Received nack credit for flit 126648
Requeued flit 126648
Received nack credit for flit 167344
Requeued flit 167344
Received nack credit for flit 119735
Requeued flit 119735
3
4
5
Received nack credit for flit 120385
Requeued flit 120385
Received nack credit for flit 142288
Requeued flit 142288
Received nack credit for flit 109350
Requeued flit 109350
1
Received nack credit for flit 166368
Requeued flit 166368
1
Received nack credit for flit 168920
Requeued flit 168920
3
3
3
2
2
Received nack credit for flit 124347
Requeued flit 124347
Received nack credit for flit 152810
Requeued flit 152810
Received nack credit for flit 167098
Requeued flit 167098
Received nack credit for flit 140599
Requeued flit 140599
Received nack credit for flit 124565
Requeued flit 124565
3
Received nack credit for flit 149908
Requeued flit 149908
1
1
Received nack credit for flit 148617
Requeued flit 148617
1
1
Received nack credit for flit 157734
Requeued flit 157734
Received nack credit for flit 171469
Requeued flit 171469
Received nack credit for flit 148928
Requeued flit 148928
1
4
4
1
Received nack credit for flit 171942
Requeued flit 171942
8
1
Received nack credit for flit 172163
Requeued flit 172163
Received nack credit for flit 140819
Requeued flit 140819
Received nack credit for flit 123208
Requeued flit 123208
Received nack credit for flit 172630
Requeued flit 172630
2
5
Received nack credit for flit 168196
Requeued flit 168196
Received nack credit for flit 92620
Requeued flit 92620
2
Received nack credit for flit 125310
Requeued flit 125310
1
4
1
4
1
Received nack credit for flit 173724
Requeued flit 173724
Received nack credit for flit 124946
Requeued flit 124946
Received nack credit for flit 169354
Requeued flit 169354
Received nack credit for flit 144179
Requeued flit 144179
4
3
Received nack credit for flit 158346
Requeued flit 158346
1
Received nack credit for flit 118531
Requeued flit 118531
Received nack credit for flit 152187
Requeued flit 152187
Received nack credit for flit 174292
Requeued flit 174292
10
Received nack credit for flit 93698
Requeued flit 93698
5
2
Received nack credit for flit 105341
Requeued flit 105341
5
Received nack credit for flit 129005
Requeued flit 129005
Received nack credit for flit 123783
Requeued flit 123783
1
Received nack credit for flit 171435
Requeued flit 171435
9
5
Received nack credit for flit 104961
Requeued flit 104961
Received nack credit for flit 136734
Requeued flit 136734
2
2
Received nack credit for flit 172455
Requeued flit 172455
Received nack credit for flit 130140
Requeued flit 130140
1
3
Received nack credit for flit 154785
Requeued flit 154785
Received nack credit for flit 120451
Requeued flit 120451
1
4
2
Received nack credit for flit 154344
Requeued flit 154344
1
Received nack credit for flit 150701
Requeued flit 150701
Received nack credit for flit 172829
Requeued flit 172829
Received nack credit for flit 174932
Requeued flit 174932
1
1
1
Received nack credit for flit 178044
Requeued flit 178044
1
Received nack credit for flit 156269
Requeued flit 156269
Received nack credit for flit 155487
Requeued flit 155487
Received nack credit for flit 174547
Requeued flit 174547
4
Received nack credit for flit 167963
Requeued flit 167963
4
1
2
Received nack credit for flit 151859
Requeued flit 151859
Received nack credit for flit 156162
Requeued flit 156162
Received nack credit for flit 153708
Requeued flit 153708
1
4
Received nack credit for flit 157342
Requeued flit 157342
Received nack credit for flit 145090
Requeued flit 145090
1
1
Received nack credit for flit 158549
Requeued flit 158549
3
1
Received nack credit for flit 168671
Requeued flit 168671
Received nack credit for flit 163773
Requeued flit 163773
Received nack credit for flit 177227
Requeued flit 177227
2
4
7
Received nack credit for flit 154219
Requeued flit 154219
Received nack credit for flit 158413
Requeued flit 158413
Received nack credit for flit 118800
Requeued flit 118800
1
1
Received nack credit for flit 158245
Requeued flit 158245
1
Received nack credit for flit 180784
Requeued flit 180784
Received nack credit for flit 160403
Requeued flit 160403
1
Received nack credit for flit 181347
Requeued flit 181347
7
Received nack credit for flit 100405
Requeued flit 100405
1
3
Received nack credit for flit 168298
Requeued flit 168298
Received nack credit for flit 154423
Requeued flit 154423
1
Received nack credit for flit 182300
Requeued flit 182300
6
Received nack credit for flit 117836
Requeued flit 117836
3
Received nack credit for flit 131214
Requeued flit 131214
1
7
Received nack credit for flit 161110
Requeued flit 161110
3
Received nack credit for flit 100857
Requeued flit 100857
1
Received nack credit for flit 182837
Requeued flit 182837
6
Received nack credit for flit 179302
Requeued flit 179302
Received nack credit for flit 114989
Requeued flit 114989
4
2
Received nack credit for flit 157867
Requeued flit 157867
Received nack credit for flit 185056
Requeued flit 185056
3
4
5
Received nack credit for flit 126321
Requeued flit 126321
Received nack credit for flit 152471
Requeued flit 152471
3
Received nack credit for flit 135408
Requeued flit 135408
1
1
Received nack credit for flit 186029
Requeued flit 186029
Received nack credit for flit 126534
Requeued flit 126534
1
1
1
1
Received nack credit for flit 166135
Requeued flit 166135
Received nack credit for flit 186382
Requeued flit 186382
Received nack credit for flit 186156
Requeued flit 186156
Received nack credit for flit 183431
Requeued flit 183431
6
5
6
8
Received nack credit for flit 137071
Requeued flit 137071
Received nack credit for flit 110224
Requeued flit 110224
Received nack credit for flit 138640
Requeued flit 138640
Received nack credit for flit 122785
Requeued flit 122785
3
7
8
1
Received nack credit for flit 96814
Requeued flit 96814
Received nack credit for flit 184110
Requeued flit 184110
Received nack credit for flit 149994
Requeued flit 149994
2
Received nack credit for flit 168529
Requeued flit 168529
1
2
Received nack credit for flit 185088
Requeued flit 185088
Received nack credit for flit 166821
Requeued flit 166821
Received nack credit for flit 187298
Requeued flit 187298
6
2
5
4
Received nack credit for flit 152274
Requeued flit 152274
Received nack credit for flit 156351
Requeued flit 156351
Received nack credit for flit 161810
Requeued flit 161810
4
Received nack credit for flit 185187
Requeued flit 185187
4
Received nack credit for flit 130560
Requeued flit 130560
Received nack credit for flit 120413
Requeued flit 120413
3
2
1
Received nack credit for flit 185877
Requeued flit 185877
Received nack credit for flit 170520
Requeued flit 170520
Received nack credit for flit 182984
Requeued flit 182984
5
1
Received nack credit for flit 149989
Requeued flit 149989
Received nack credit for flit 167638
Requeued flit 167638
2
8
1
3
Received nack credit for flit 164497
Requeued flit 164497
6
Received nack credit for flit 133946
Requeued flit 133946
Received nack credit for flit 156440
Requeued flit 156440
Received nack credit for flit 190640
Requeued flit 190640
Received nack credit for flit 167605
Requeued flit 167605
2
3
1
Received nack credit for flit 164653
Requeued flit 164653
Received nack credit for flit 185678
Requeued flit 185678
Received nack credit for flit 187517
Requeued flit 187517
4
2
Received nack credit for flit 113673
Requeued flit 113673
Received nack credit for flit 143716
Requeued flit 143716
1
6
Received nack credit for flit 171783
Requeued flit 171783
Received nack credit for flit 148817
Requeued flit 148817
9
3
4
5
2
Received nack credit for flit 123530
Requeued flit 123530
Received nack credit for flit 122231
Requeued flit 122231
Received nack credit for flit 140497
Requeued flit 140497
Received nack credit for flit 128856
Requeued flit 128856
5
1
Received nack credit for flit 187245
Requeued flit 187245
Received nack credit for flit 116497
Requeued flit 116497
Received nack credit for flit 190556
Requeued flit 190556
7
2
2
2
Received nack credit for flit 119816
Requeued flit 119816
Received nack credit for flit 190631
Requeued flit 190631
Received nack credit for flit 132458
Requeued flit 132458
5
Received nack credit for flit 163780
Requeued flit 163780
Received nack credit for flit 116333
Requeued flit 116333
12
3
2
2
Received nack credit for flit 101401
Requeued flit 101401
2
1
Received nack credit for flit 166541
Requeued flit 166541
6
Received nack credit for flit 192006
Requeued flit 192006
Received nack credit for flit 135285
Requeued flit 135285
Received nack credit for flit 135026
Requeued flit 135026
4
Received nack credit for flit 195099
Requeued flit 195099
Received nack credit for flit 142808
Requeued flit 142808
Received nack credit for flit 145423
Requeued flit 145423
1
1
5
Received nack credit for flit 194016
Requeued flit 194016
7
Received nack credit for flit 191335
Requeued flit 191335
Received nack credit for flit 143999
Requeued flit 143999
2
Received nack credit for flit 112850
Requeued flit 112850
Received nack credit for flit 192129
Requeued flit 192129
3
Received nack credit for flit 137460
Requeued flit 137460
1
3
Received nack credit for flit 190768
Requeued flit 190768
Received nack credit for flit 174032
Requeued flit 174032
1
1
Received nack credit for flit 195777
Requeued flit 195777
1
4
Received nack credit for flit 163212
Requeued flit 163212
1
Received nack credit for flit 172607
Requeued flit 172607
Received nack credit for flit 181390
Requeued flit 181390
1
Received nack credit for flit 198061
Requeued flit 198061
3
2
Received nack credit for flit 196530
Requeued flit 196530
Received nack credit for flit 116737
Requeued flit 116737
Received nack credit for flit 146716
Requeued flit 146716
2
Received nack credit for flit 195292
Requeued flit 195292
1
1
Received nack credit for flit 177584
Requeued flit 177584
Received nack credit for flit 198705
Requeued flit 198705
5
Received nack credit for flit 195563
Requeued flit 195563
1
1
5
Received nack credit for flit 177997
Requeued flit 177997
Received nack credit for flit 200311
Requeued flit 200311
4
Received nack credit for flit 114778
Requeued flit 114778
Received nack credit for flit 145558
Requeued flit 145558
5
Received nack credit for flit 111614
Requeued flit 111614
4
Received nack credit for flit 132620
Requeued flit 132620
1
Received nack credit for flit 197987
Requeued flit 197987
9
Received nack credit for flit 112727
Requeued flit 112727
9
Received nack credit for flit 104565
Requeued flit 104565
4
5
Received nack credit for flit 170622
Requeued flit 170622
1
Received nack credit for flit 144623
Requeued flit 144623
Received nack credit for flit 187879
Requeued flit 187879
7
Received nack credit for flit 129777
Requeued flit 129777
10
8
1
Received nack credit for flit 104473
Requeued flit 104473
Received nack credit for flit 128003
Requeued flit 128003
8
1
Received nack credit for flit 203952
Requeued flit 203952
Received nack credit for flit 112662
Requeued flit 112662
2
1
Received nack credit for flit 141318
Requeued flit 141318
Received nack credit for flit 184456
Requeued flit 184456
4
2
Received nack credit for flit 204258
Requeued flit 204258
4
Received nack credit for flit 178963
Requeued flit 178963
Received nack credit for flit 145195
Requeued flit 145195
Received nack credit for flit 199532
Requeued flit 199532
1
4
Received nack credit for flit 179412
Requeued flit 179412
4
Received nack credit for flit 205022
Requeued flit 205022
1
Received nack credit for flit 183496
Requeued flit 183496
Received nack credit for flit 127771
Requeued flit 127771
5
Received nack credit for flit 184479
Requeued flit 184479
3
Received nack credit for flit 176313
Requeued flit 176313
9
6
6
Received nack credit for flit 116924
Requeued flit 116924
3
Received nack credit for flit 143505
Requeued flit 143505
Received nack credit for flit 164535
Requeued flit 164535
Received nack credit for flit 122463
Requeued flit 122463
2
1
Received nack credit for flit 145968
Requeued flit 145968
Received nack credit for flit 202988
Requeued flit 202988
2
2
Received nack credit for flit 201020
Requeued flit 201020
Received nack credit for flit 198083
Requeued flit 198083
6
6
1
Received nack credit for flit 123777
Requeued flit 123777
1
5
Received nack credit for flit 157351
Requeued flit 157351
Received nack credit for flit 203786
Requeued flit 203786
Received nack credit for flit 205454
Requeued flit 205454
1
Received nack credit for flit 154931
Requeued flit 154931
3
4
Received nack credit for flit 205437
Requeued flit 205437
2
Received nack credit for flit 208132
Requeued flit 208132
Received nack credit for flit 125986
Requeued flit 125986
Received nack credit for flit 207777
Requeued flit 207777
2
2
Received nack credit for flit 207999
Requeued flit 207999
Received nack credit for flit 207537
Requeued flit 207537
1
Received nack credit for flit 188287
Requeued flit 188287
3
Received nack credit for flit 157657
Requeued flit 157657
1
2
Received nack credit for flit 207131
Requeued flit 207131
Received nack credit for flit 176778
Requeued flit 176778
5
7
6
Received nack credit for flit 154523
Requeued flit 154523
Received nack credit for flit 182791
Requeued flit 182791
Received nack credit for flit 147507
Requeued flit 147507
5
1
1
Received nack credit for flit 145114
Requeued flit 145114
5
3
Received nack credit for flit 189526
Requeued flit 189526
3
Received nack credit for flit 201117
Requeued flit 201117
4
3
Received nack credit for flit 158299
Requeued flit 158299
Received nack credit for flit 209555
Requeued flit 209555
Received nack credit for flit 154136
Requeued flit 154136
Received nack credit for flit 187544
Requeued flit 187544
9
4
Received nack credit for flit 188091
Requeued flit 188091
Received nack credit for flit 156022
Requeued flit 156022
Received nack credit for flit 179647
Requeued flit 179647
1
Received nack credit for flit 208654
Requeued flit 208654
1
1
4
Received nack credit for flit 208291
Requeued flit 208291
Received nack credit for flit 193071
Requeued flit 193071
1
Received nack credit for flit 132250
Requeued flit 132250
1
Received nack credit for flit 208259
Requeued flit 208259
Received nack credit for flit 212432
Requeued flit 212432
5
6
1
Received nack credit for flit 167274
Requeued flit 167274
Received nack credit for flit 156560
Requeued flit 156560
Received nack credit for flit 212620
Requeued flit 212620
3
3
6
4
2
Received nack credit for flit 146266
Requeued flit 146266
Received nack credit for flit 182787
Requeued flit 182787
Received nack credit for flit 148638
Requeued flit 148638
Received nack credit for flit 177304
Requeued flit 177304
Received nack credit for flit 189592
Requeued flit 189592
9
Received nack credit for flit 113273
Requeued flit 113273
6
1
8
Received nack credit for flit 145713
Requeued flit 145713
Received nack credit for flit 125860
Requeued flit 125860
Received nack credit for flit 175636
Requeued flit 175636
4
3
2
Received nack credit for flit 155294
Requeued flit 155294
5
Received nack credit for flit 171848
Requeued flit 171848
1
4
Received nack credit for flit 163320
Requeued flit 163320
Received nack credit for flit 183191
Requeued flit 183191
Received nack credit for flit 194720
Requeued flit 194720
Received nack credit for flit 189894
Requeued flit 189894
3
1
Received nack credit for flit 162050
Requeued flit 162050
Received nack credit for flit 215432
Requeued flit 215432
3
1
Received nack credit for flit 190261
Requeued flit 190261
Received nack credit for flit 175381
Requeued flit 175381
4
6
5
Received nack credit for flit 188911
Requeued flit 188911
4
4
Received nack credit for flit 161361
Requeued flit 161361
Received nack credit for flit 148881
Requeued flit 148881
Received nack credit for flit 206175
Requeued flit 206175
Received nack credit for flit 128453
Requeued flit 128453
3
Received nack credit for flit 162528
Requeued flit 162528
1
Received nack credit for flit 197129
Requeued flit 197129
9
Received nack credit for flit 136383
Requeued flit 136383
7
1
3
Received nack credit for flit 128857
Requeued flit 128857
Received nack credit for flit 174968
Requeued flit 174968
4
Received nack credit for flit 214609
Requeued flit 214609
Received nack credit for flit 186167
Requeued flit 186167
1
2
1
Received nack credit for flit 198710
Requeued flit 198710
Received nack credit for flit 216009
Requeued flit 216009
Received nack credit for flit 209300
Requeued flit 209300
1
1
Received nack credit for flit 199095
Requeued flit 199095
2
Received nack credit for flit 212240
Requeued flit 212240
Received nack credit for flit 168139
Requeued flit 168139
2
Received nack credit for flit 176254
Requeued flit 176254
1
3
Received nack credit for flit 187872
Requeued flit 187872
Received nack credit for flit 214035
Requeued flit 214035
2
2
Received nack credit for flit 178754
Requeued flit 178754
Received nack credit for flit 154493
Requeued flit 154493
2
5
Received nack credit for flit 153638
Requeued flit 153638
Received nack credit for flit 130265
Requeued flit 130265
4
4
Received nack credit for flit 188531
Requeued flit 188531
Received nack credit for flit 198288
Requeued flit 198288
4
4
Received nack credit for flit 199983
Requeued flit 199983
Received nack credit for flit 210008
Requeued flit 210008
1
10
1
Received nack credit for flit 207303
Requeued flit 207303
Received nack credit for flit 120860
Requeued flit 120860
Received nack credit for flit 211073
Requeued flit 211073
1
Received nack credit for flit 217381
Requeued flit 217381
1
Received nack credit for flit 218264
Requeued flit 218264
5
Received nack credit for flit 213118
Requeued flit 213118
4
6
Received nack credit for flit 166909
Requeued flit 166909
4
2
1
Received nack credit for flit 168692
Requeued flit 168692
Received nack credit for flit 143315
Requeued flit 143315
Received nack credit for flit 177334
Requeued flit 177334
Received nack credit for flit 204836
Requeued flit 204836
1
Received nack credit for flit 205477
Requeued flit 205477
1
Received nack credit for flit 209255
Requeued flit 209255
1
1
Received nack credit for flit 222010
Requeued flit 222010
2
Received nack credit for flit 188108
Requeued flit 188108
Received nack credit for flit 216184
Requeued flit 216184
6
1
Received nack credit for flit 142856
Requeued flit 142856
Received nack credit for flit 226471
Requeued flit 226471
2
4
Received nack credit for flit 198843
Requeued flit 198843
Received nack credit for flit 195892
Requeued flit 195892
5
1
1
Received nack credit for flit 207977
Requeued flit 207977
1
Received nack credit for flit 132993
Requeued flit 132993
Received nack credit for flit 214871
Requeued flit 214871
Received nack credit for flit 217214
Requeued flit 217214
1
1
Received nack credit for flit 225767
Requeued flit 225767
7
Received nack credit for flit 215448
Requeued flit 215448
Received nack credit for flit 165946
Requeued flit 165946
6
Received nack credit for flit 194542
Requeued flit 194542
3
Received nack credit for flit 155552
Requeued flit 155552
5
Received nack credit for flit 190616
Requeued flit 190616
3
1
3
3
Received nack credit for flit 227200
Requeued flit 227200
Received nack credit for flit 212974
Requeued flit 212974
Received nack credit for flit 208473
Requeued flit 208473
Received nack credit for flit 230711
Requeued flit 230711
1
Received nack credit for flit 221119
Requeued flit 221119
4
5
Received nack credit for flit 228619
Requeued flit 228619
Received nack credit for flit 176301
Requeued flit 176301
1
2
7
2
Received nack credit for flit 210424
Requeued flit 210424
Received nack credit for flit 215997
Requeued flit 215997
Received nack credit for flit 134479
Requeued flit 134479
1
Received nack credit for flit 158950
Requeued flit 158950
3
Received nack credit for flit 191470
Requeued flit 191470
Received nack credit for flit 186849
Requeued flit 186849
3
1
Received nack credit for flit 144898
Requeued flit 144898
Received nack credit for flit 233557
Requeued flit 233557
3
Received nack credit for flit 213685
Requeued flit 213685
5
Received nack credit for flit 150309
Requeued flit 150309
2
7
3
Received nack credit for flit 210015
Requeued flit 210015
Received nack credit for flit 129837
Requeued flit 129837
1
Received nack credit for flit 156041
Requeued flit 156041
1
Received nack credit for flit 216977
Requeued flit 216977
2
Received nack credit for flit 230093
Requeued flit 230093
Received nack credit for flit 211486
Requeued flit 211486
3
Received nack credit for flit 146869
Requeued flit 146869
3
1
Received nack credit for flit 184389
Requeued flit 184389
2
Received nack credit for flit 215610
Requeued flit 215610
4
Received nack credit for flit 204750
Requeued flit 204750
Received nack credit for flit 227144
Requeued flit 227144
3
3
7
3
Received nack credit for flit 139383
Requeued flit 139383
Received nack credit for flit 139353
Requeued flit 139353
2
4
Received nack credit for flit 186591
Requeued flit 186591
Received nack credit for flit 212485
Requeued flit 212485
Received nack credit for flit 179406
Requeued flit 179406
Received nack credit for flit 232176
Requeued flit 232176
1
1
1
Received nack credit for flit 234572
Requeued flit 234572
1
Received nack credit for flit 219634
Requeued flit 219634
Received nack credit for flit 222299
Requeued flit 222299
Received nack credit for flit 223845
Requeued flit 223845
6
1
1
Received nack credit for flit 134942
Requeued flit 134942
Received nack credit for flit 223983
Requeued flit 223983
Received nack credit for flit 223088
Requeued flit 223088
1
6
Received nack credit for flit 220834
Requeued flit 220834
4
Received nack credit for flit 140898
Requeued flit 140898
8
Received nack credit for flit 217231
Requeued flit 217231
4
Received nack credit for flit 135779
Requeued flit 135779
Received nack credit for flit 189727
Requeued flit 189727
2
Received nack credit for flit 224304
Requeued flit 224304
6
2
Received nack credit for flit 183731
Requeued flit 183731
Received nack credit for flit 237806
Requeued flit 237806
9
2
Received nack credit for flit 126667
Requeued flit 126667
Received nack credit for flit 217359
Requeued flit 217359
1
3
1
Received nack credit for flit 235711
Requeued flit 235711
4
Received nack credit for flit 208623
Requeued flit 208623
Received nack credit for flit 225347
Requeued flit 225347
Received nack credit for flit 194425
Requeued flit 194425
6
Received nack credit for flit 140314
Requeued flit 140314
1
Received nack credit for flit 220713
Requeued flit 220713
6
2
Received nack credit for flit 194743
Requeued flit 194743
Received nack credit for flit 222609
Requeued flit 222609
3
3
1
2
Received nack credit for flit 189937
Requeued flit 189937
1
Received nack credit for flit 218295
Requeued flit 218295
Received nack credit for flit 225224
Requeued flit 225224
Received nack credit for flit 228663
Requeued flit 228663
Received nack credit for flit 230156
Requeued flit 230156
1
4
2
Received nack credit for flit 221471
Requeued flit 221471
Received nack credit for flit 153761
Requeued flit 153761
Received nack credit for flit 240122
Requeued flit 240122
1
Received nack credit for flit 236047
Requeued flit 236047
2
1
1
Received nack credit for flit 238234
Requeued flit 238234
Received nack credit for flit 186761
Requeued flit 186761
Received nack credit for flit 229385
Requeued flit 229385
1
3
Received nack credit for flit 224856
Requeued flit 224856
6
Received nack credit for flit 233658
Requeued flit 233658
3
6
5
Received nack credit for flit 227061
Requeued flit 227061
Received nack credit for flit 170897
Requeued flit 170897
1
Received nack credit for flit 174581
Requeued flit 174581
Received nack credit for flit 142755
Requeued flit 142755
Received nack credit for flit 232523
Requeued flit 232523
8
Received nack credit for flit 138351
Requeued flit 138351
1
Received nack credit for flit 225071
Requeued flit 225071
1
2
1
1
Received nack credit for flit 242878
Requeued flit 242878
Received nack credit for flit 224086
Requeued flit 224086
Received nack credit for flit 235898
Requeued flit 235898
1
Received nack credit for flit 221922
Requeued flit 221922
Received nack credit for flit 236725
Requeued flit 236725
1
3
Received nack credit for flit 227159
Requeued flit 227159
1
5
Received nack credit for flit 242729
Requeued flit 242729
Received nack credit for flit 226233
Requeued flit 226233
Received nack credit for flit 222459
Requeued flit 222459
7
2
5
Received nack credit for flit 176645
Requeued flit 176645
2
Received nack credit for flit 243449
Requeued flit 243449
Received nack credit for flit 164676
Requeued flit 164676
Received nack credit for flit 196020
Requeued flit 196020
1
4
8
Received nack credit for flit 223049
Requeued flit 223049
Received nack credit for flit 241668
Requeued flit 241668
Received nack credit for flit 154953
Requeued flit 154953
4
2
Received nack credit for flit 160130
Requeued flit 160130
Received nack credit for flit 189385
Requeued flit 189385
1
Received nack credit for flit 243424
Requeued flit 243424
8
5
2
Received nack credit for flit 218997
Requeued flit 218997
Received nack credit for flit 148107
Requeued flit 148107
Received nack credit for flit 177150
Requeued flit 177150
3
Received nack credit for flit 147290
Requeued flit 147290
3
1
Received nack credit for flit 228070
Requeued flit 228070
6
2
Received nack credit for flit 229340
Requeued flit 229340
Received nack credit for flit 196759
Requeued flit 196759
Received nack credit for flit 208217
Requeued flit 208217
2
2
Received nack credit for flit 164958
Requeued flit 164958
4
Received nack credit for flit 197631
Requeued flit 197631
Received nack credit for flit 201055
Requeued flit 201055
1
Received nack credit for flit 239400
Requeued flit 239400
4
Received nack credit for flit 246955
Requeued flit 246955
7
1
Received nack credit for flit 191354
Requeued flit 191354
Received nack credit for flit 246141
Requeued flit 246141
2
3
Received nack credit for flit 228718
Requeued flit 228718
Received nack credit for flit 239388
Requeued flit 239388
1
1
5
Received nack credit for flit 249089
Requeued flit 249089
Received nack credit for flit 232627
Requeued flit 232627
Received nack credit for flit 157997
Requeued flit 157997
5
1
1
8
Received nack credit for flit 199602
Requeued flit 199602
Received nack credit for flit 191933
Requeued flit 191933
Received nack credit for flit 250117
Requeued flit 250117
Received nack credit for flit 143186
Requeued flit 143186
5
1
Received nack credit for flit 212099
Requeued flit 212099
Received nack credit for flit 232163
Requeued flit 232163
1
1
Received nack credit for flit 226231
Requeued flit 226231
Received nack credit for flit 245916
Requeued flit 245916
1
1
Received nack credit for flit 233941
Requeued flit 233941
Received nack credit for flit 202711
Requeued flit 202711
1
2
Received nack credit for flit 205142
Requeued flit 205142
Received nack credit for flit 236856
Requeued flit 236856
6
Received nack credit for flit 204102
Requeued flit 204102
5
2
Received nack credit for flit 147079
Requeued flit 147079
1
2
Received nack credit for flit 230001
Requeued flit 230001
Received nack credit for flit 254924
Requeued flit 254924
Received nack credit for flit 177025
Requeued flit 177025
4
4
1
Received nack credit for flit 152179
Requeued flit 152179
Received nack credit for flit 203127
Requeued flit 203127
Received nack credit for flit 209042
Requeued flit 209042
1
4
1
Received nack credit for flit 240575
Requeued flit 240575
Received nack credit for flit 235950
Requeued flit 235950
Received nack credit for flit 207692
Requeued flit 207692
7
Received nack credit for flit 140897
Requeued flit 140897
1
5
4
Received nack credit for flit 245447
Requeued flit 245447
Received nack credit for flit 155086
Requeued flit 155086
Received nack credit for flit 203202
Requeued flit 203202
9
Received nack credit for flit 142236
Requeued flit 142236
6
Received nack credit for flit 226282
Requeued flit 226282
2
Received nack credit for flit 225143
Requeued flit 225143
6
Received nack credit for flit 163493
Requeued flit 163493
5
Received nack credit for flit 235163
Requeued flit 235163
1
Received nack credit for flit 239379
Requeued flit 239379
1
2
Received nack credit for flit 256787
Requeued flit 256787
Received nack credit for flit 207765
Requeued flit 207765
8
3
Received nack credit for flit 216662
Requeued flit 216662
Received nack credit for flit 247428
Requeued flit 247428
1
1
5
Received nack credit for flit 251611
Requeued flit 251611
2
1
2
[...]
Received nack credit for flit 333487
Requeued flit 333487
Received nack credit for flit 309159
Requeued flit 309159
6
3
Received nack credit for flit 328989
Requeued flit 328989
Received nack credit for flit 206580
Requeued flit 206580
2
5
Received nack credit for flit 319771
Requeued flit 319771
1
Received nack credit for flit 317421
Requeued flit 317421
Received nack credit for flit 284428
Requeued flit 284428
1
Received nack credit for flit 332833
Requeued flit 332833
7
1
Received nack credit for flit 306037
Requeued flit 306037
Received nack credit for flit 333209
Requeued flit 333209
4
2
2
Received nack credit for flit 269684
Requeued flit 269684
Received nack credit for flit 251042
Requeued flit 251042
Received nack credit for flit 257454
Requeued flit 257454
1
2
2
Received nack credit for flit 321678
Requeued flit 321678
Received nack credit for flit 286830
Requeued flit 286830
Received nack credit for flit 284387
Requeued flit 284387
1
Received nack credit for flit 331658
Requeued flit 331658
1
Received nack credit for flit 321046
Requeued flit 321046
4
Received nack credit for flit 336702
Requeued flit 336702
8
Received nack credit for flit 267322
Requeued flit 267322
2
3
Received nack credit for flit 323497
Requeued flit 323497
Received nack credit for flit 295272
Requeued flit 295272
7
6
Received nack credit for flit 198630
Requeued flit 198630
4
6
Received nack credit for flit 200568
Requeued flit 200568
Received nack credit for flit 308888
Requeued flit 308888
1
4
Received nack credit for flit 212594
Requeued flit 212594
Received nack credit for flit 329950
Requeued flit 329950
3
1
Received nack credit for flit 302844
Requeued flit 302844
Received nack credit for flit 339915
Requeued flit 339915
Received nack credit for flit 320382
Requeued flit 320382
3
Received nack credit for flit 227491
Requeued flit 227491
6
8
5
2
1
Received nack credit for flit 318637
Requeued flit 318637
Received nack credit for flit 219222
Requeued flit 219222
Received nack credit for flit 332748
Requeued flit 332748
2
Received nack credit for flit 291151
Requeued flit 291151
Received nack credit for flit 316275
Requeued flit 316275
Received nack credit for flit 298352
Requeued flit 298352
2
3
1
Received nack credit for flit 311754
Requeued flit 311754
Received nack credit for flit 329047
Requeued flit 329047
Received nack credit for flit 327898
Requeued flit 327898
2
1
2
7
Received nack credit for flit 298221
Requeued flit 298221
Received nack credit for flit 324762
Requeued flit 324762
Received nack credit for flit 260174
Requeued flit 260174
2
3
Received nack credit for flit 305110
Requeued flit 305110
Received nack credit for flit 328287
Requeued flit 328287
Received nack credit for flit 290217
Requeued flit 290217
7
8
2
3
Received nack credit for flit 214123
Requeued flit 214123
Received nack credit for flit 209708
Requeued flit 209708
Received nack credit for flit 323759
Requeued flit 323759
Received nack credit for flit 215667
Requeued flit 215667
5
Received nack credit for flit 293453
Requeued flit 293453
7
4
10
Received nack credit for flit 198951
Requeued flit 198951
5
Received nack credit for flit 212742
Requeued flit 212742
1
Received nack credit for flit 199552
Requeued flit 199552
Received nack credit for flit 293165
Requeued flit 293165
Received nack credit for flit 329209
Requeued flit 329209
1
2
1
Received nack credit for flit 325666
Requeued flit 325666
Received nack credit for flit 296282
Requeued flit 296282
Received nack credit for flit 327667
Requeued flit 327667
4
Received nack credit for flit 204893
Requeued flit 204893
6
1
4
Received nack credit for flit 291842
Requeued flit 291842
Received nack credit for flit 290927
Requeued flit 290927
Received nack credit for flit 294950
Requeued flit 294950
4
Received nack credit for flit 292010
Requeued flit 292010
7
Received nack credit for flit 269304
Requeued flit 269304
2
Received nack credit for flit 328184
Requeued flit 328184
3
3
Received nack credit for flit 309910
Requeued flit 309910
Received nack credit for flit 332012
Requeued flit 332012
4
Received nack credit for flit 342870
Requeued flit 342870
4
Received nack credit for flit 282432
Requeued flit 282432
1
2
Received nack credit for flit 333941
Requeued flit 333941
Received nack credit for flit 297087
Requeued flit 297087
4
Received nack credit for flit 327831
Requeued flit 327831
8
2
Received nack credit for flit 280957
Requeued flit 280957
4
Received nack credit for flit 334626
Requeued flit 334626
5
1
Received nack credit for flit 296755
Requeued flit 296755
Received nack credit for flit 269542
Requeued flit 269542
Received nack credit for flit 347341
Requeued flit 347341
5
4
Received nack credit for flit 208394
Requeued flit 208394
Received nack credit for flit 345394
Requeued flit 345394
1
1
Received nack credit for flit 335290
Requeued flit 335290
2
Received nack credit for flit 301885
Requeued flit 301885
3
6
Received nack credit for flit 250362
Requeued flit 250362
Received nack credit for flit 349202
Requeued flit 349202
Received nack credit for flit 272657
Requeued flit 272657
2
3
Received nack credit for flit 269638
Requeued flit 269638
Received nack credit for flit 236101
Requeued flit 236101
2
Received nack credit for flit 263647
Requeued flit 263647
5
Received nack credit for flit 309062
Requeued flit 309062
1
Received nack credit for flit 307512
Requeued flit 307512
3
3
Received nack credit for flit 352511
Requeued flit 352511
Received nack credit for flit 227423
Requeued flit 227423
1
5
3
7
Received nack credit for flit 291321
Requeued flit 291321
Received nack credit for flit 299730
Requeued flit 299730
Received nack credit for flit 305721
Requeued flit 305721
Received nack credit for flit 223807
Requeued flit 223807
2
3
1
Received nack credit for flit 249334
Requeued flit 249334
Received nack credit for flit 335602
Requeued flit 335602
5
Received nack credit for flit 302691
Requeued flit 302691
3
Received nack credit for flit 344307
Requeued flit 344307
Received nack credit for flit 233144
Requeued flit 233144
1
6
5
Received nack credit for flit 304440
Requeued flit 304440
Received nack credit for flit 292711
Requeued flit 292711
Received nack credit for flit 335335
Requeued flit 335335
3
Received nack credit for flit 351481
Requeued flit 351481
1
Received nack credit for flit 333295
Requeued flit 333295
2
Received nack credit for flit 333086
Requeued flit 333086
1
Received nack credit for flit 306003
Requeued flit 306003
1
1
Received nack credit for flit 339892
Requeued flit 339892
Received nack credit for flit 356694
Requeued flit 356694
3
10
Received nack credit for flit 230025
Requeued flit 230025
Received nack credit for flit 282411
Requeued flit 282411
1
Received nack credit for flit 340840
Requeued flit 340840
1
4
7
Received nack credit for flit 225090
Requeued flit 225090
Received nack credit for flit 357757
Requeued flit 357757
1
Received nack credit for flit 301273
Requeued flit 301273
Received nack credit for flit 343345
Requeued flit 343345
5
Received nack credit for flit 330418
Requeued flit 330418
3
6
Received nack credit for flit 307823
Requeued flit 307823
1
2
Received nack credit for flit 310960
Requeued flit 310960
6
Received nack credit for flit 310418
Requeued flit 310418
Received nack credit for flit 276824
Requeued flit 276824
Received nack credit for flit 224014
Requeued flit 224014
1
Received nack credit for flit 334174
Requeued flit 334174
1
7
8
Received nack credit for flit 335679
Requeued flit 335679
Received nack credit for flit 213841
Requeued flit 213841
Received nack credit for flit 213165
Requeued flit 213165
2
Received nack credit for flit 338811
Requeued flit 338811
2
Received nack credit for flit 355410
Requeued flit 355410
9
1
5
1
Received nack credit for flit 204471
Requeued flit 204471
Received nack credit for flit 307825
Requeued flit 307825
Received nack credit for flit 344537
Requeued flit 344537
Received nack credit for flit 339711
Requeued flit 339711
1
Received nack credit for flit 310612
Requeued flit 310612
7
5
5
1
Received nack credit for flit 337451
Requeued flit 337451
Received nack credit for flit 231373
Requeued flit 231373
Received nack credit for flit 312788
Requeued flit 312788
1
8
2
Received nack credit for flit 359528
Requeued flit 359528
Received nack credit for flit 341584
Requeued flit 341584
Received nack credit for flit 209344
Requeued flit 209344
2
4
Received nack credit for flit 314933
Requeued flit 314933
1
2
Received nack credit for flit 360918
Requeued flit 360918
Received nack credit for flit 311051
Requeued flit 311051
Received nack credit for flit 274037
Requeued flit 274037
4
3
6
Received nack credit for flit 221128
Requeued flit 221128
Received nack credit for flit 305788
Requeued flit 305788
Received nack credit for flit 302241
Requeued flit 302241
2
7
Received nack credit for flit 317209
Requeued flit 317209
Received nack credit for flit 328775
Requeued flit 328775
1
2
1
Received nack credit for flit 364002
Requeued flit 364002
Received nack credit for flit 347208
Requeued flit 347208
Received nack credit for flit 344469
Requeued flit 344469
3
6
Received nack credit for flit 360082
Requeued flit 360082
Received nack credit for flit 295659
Requeued flit 295659
1
3
Received nack credit for flit 318268
Requeued flit 318268
Received nack credit for flit 360900
Requeued flit 360900
9
Received nack credit for flit 292191
Requeued flit 292191
1
3
2
Received nack credit for flit 360361
Requeued flit 360361
Received nack credit for flit 307868
Requeued flit 307868
Received nack credit for flit 362684
Requeued flit 362684
1
3
4
Received nack credit for flit 350246
Requeued flit 350246
Received nack credit for flit 307936
Requeued flit 307936
Received nack credit for flit 347000
Requeued flit 347000
6
1
Received nack credit for flit 250108
Requeued flit 250108
Received nack credit for flit 350719
Requeued flit 350719
3
2
Received nack credit for flit 323786
Requeued flit 323786
Received nack credit for flit 346223
Requeued flit 346223
1
2
Received nack credit for flit 355517
Requeued flit 355517
1
10
Received nack credit for flit 264348
Requeued flit 264348
Received nack credit for flit 346948
Requeued flit 346948
Received nack credit for flit 229807
Requeued flit 229807
2
Received nack credit for flit 365149
Requeued flit 365149
10
2
1
Received nack credit for flit 313752
Requeued flit 313752
Received nack credit for flit 326035
Requeued flit 326035
Received nack credit for flit 362178
Requeued flit 362178
1
2
2
Received nack credit for flit 316287
Requeued flit 316287
Received nack credit for flit 349289
Requeued flit 349289
Received nack credit for flit 348657
Requeued flit 348657
1
Received nack credit for flit 324347
Requeued flit 324347
6
1
Received nack credit for flit 335431
Requeued flit 335431
Received nack credit for flit 318518
Requeued flit 318518
1
1
Received nack credit for flit 354049
Requeued flit 354049
1
Received nack credit for flit 353552
Requeued flit 353552
2
Received nack credit for flit 365968
Requeued flit 365968
Received nack credit for flit 272296
Requeued flit 272296
7
1
Received nack credit for flit 347345
Requeued flit 347345
Received nack credit for flit 320903
Requeued flit 320903
4
1
Received nack credit for flit 317714
Requeued flit 317714
Received nack credit for flit 356936
Requeued flit 356936
1
3
6
Received nack credit for flit 371371
Requeued flit 371371
Received nack credit for flit 254797
Requeued flit 254797
Received nack credit for flit 325768
Requeued flit 325768
5
Received nack credit for flit 350011
Requeued flit 350011
9
Received nack credit for flit 213504
Requeued flit 213504
5
1
2
Received nack credit for flit 311239
Requeued flit 311239
Received nack credit for flit 349279
Requeued flit 349279
Received nack credit for flit 319375
Requeued flit 319375
7
5
Received nack credit for flit 354326
Requeued flit 354326
4
Received nack credit for flit 369566
Requeued flit 369566
1
Received nack credit for flit 355006
Requeued flit 355006
Received nack credit for flit 347018
Requeued flit 347018
2
Received nack credit for flit 267376
Requeued flit 267376
1
Received nack credit for flit 374369
Requeued flit 374369
1
5
1
Received nack credit for flit 358767
Requeued flit 358767
Received nack credit for flit 353465
Requeued flit 353465
Received nack credit for flit 358831
Requeued flit 358831
1
Received nack credit for flit 323774
Requeued flit 323774
4
1
7
Received nack credit for flit 248653
Requeued flit 248653
1
Received nack credit for flit 371219
Requeued flit 371219
1
5
Received nack credit for flit 234261
Requeued flit 234261
Received nack credit for flit 353498
Requeued flit 353498
Received nack credit for flit 360107
Requeued flit 360107
Received nack credit for flit 228785
Requeued flit 228785
5
2
Received nack credit for flit 325043
Requeued flit 325043
Received nack credit for flit 321321
Requeued flit 321321
2
Received nack credit for flit 316694
Requeued flit 316694
2
Received nack credit for flit 373411
Requeued flit 373411
1
8
2
8
1
4
Received nack credit for flit 326388
Requeued flit 326388
3
6
Received nack credit for flit 221129
Requeued flit 221129
Received nack credit for flit 218958
Requeued flit 218958
Received nack credit for flit 311816
Requeued flit 311816
Received nack credit for flit 376483
Requeued flit 376483
Received nack credit for flit 362802
Requeued flit 362802
Received nack credit for flit 361562
Requeued flit 361562
Received nack credit for flit 360878
Requeued flit 360878
4
3
Received nack credit for flit 246849
Requeued flit 246849
5
Received nack credit for flit 356803
Requeued flit 356803
4
Received nack credit for flit 356362
Requeued flit 356362
4
Received nack credit for flit 355634
Requeued flit 355634
Received nack credit for flit 261581
Requeued flit 261581
1
1
Received nack credit for flit 335792
Requeued flit 335792
1
4
Received nack credit for flit 329335
Requeued flit 329335
Received nack credit for flit 375236
Requeued flit 375236
Received nack credit for flit 253684
Requeued flit 253684
2
5
Received nack credit for flit 273109
Requeued flit 273109
Received nack credit for flit 245747
Requeued flit 245747
2
1
2
Received nack credit for flit 357422
Requeued flit 357422
Received nack credit for flit 295821
Requeued flit 295821
Received nack credit for flit 330088
Requeued flit 330088
7
4
Received nack credit for flit 359961
Requeued flit 359961
Received nack credit for flit 237537
Requeued flit 237537
3
4
2
3
Received nack credit for flit 288309
Requeued flit 288309
Received nack credit for flit 224268
Requeued flit 224268
Received nack credit for flit 360830
Requeued flit 360830
Received nack credit for flit 362421
Requeued flit 362421
1
Received nack credit for flit 355976
Requeued flit 355976
6
4
Received nack credit for flit 229598
Requeued flit 229598
1
1
Received nack credit for flit 328094
Requeued flit 328094
Received nack credit for flit 314090
Requeued flit 314090
3
2
8
2
Received nack credit for flit 333439
Requeued flit 333439
Received nack credit for flit 311323
Requeued flit 311323
Received nack credit for flit 361904
Requeued flit 361904
Received nack credit for flit 358784
Requeued flit 358784
Received nack credit for flit 215135
Requeued flit 215135
4
1
7
Received nack credit for flit 314716
Requeued flit 314716
Received nack credit for flit 382922
Requeued flit 382922
Received nack credit for flit 260941
Requeued flit 260941
6
1
5
Received nack credit for flit 240163
Requeued flit 240163
Received nack credit for flit 334049
Requeued flit 334049
Received nack credit for flit 359453
Requeued flit 359453
4
Received nack credit for flit 328795
Requeued flit 328795
1
4
Received nack credit for flit 361312
Requeued flit 361312
1
3
Received nack credit for flit 355133
Requeued flit 355133
Received nack credit for flit 378482
Requeued flit 378482
Received nack credit for flit 319571
Requeued flit 319571
4
4
Received nack credit for flit 226879
Requeued flit 226879
Received nack credit for flit 225731
Requeued flit 225731
2
4
1
4
Received nack credit for flit 315611
Requeued flit 315611
Received nack credit for flit 339896
Requeued flit 339896
Received nack credit for flit 262027
Requeued flit 262027
Received nack credit for flit 278797
Requeued flit 278797
1
4
1
Received nack credit for flit 333388
Requeued flit 333388
3
7
Received nack credit for flit 258511
Requeued flit 258511
Received nack credit for flit 367838
Requeued flit 367838
Received nack credit for flit 373275
Requeued flit 373275
Received nack credit for flit 228434
Requeued flit 228434
3
1
2
1
Received nack credit for flit 320532
Requeued flit 320532
Received nack credit for flit 363347
Requeued flit 363347
Received nack credit for flit 334566
Requeued flit 334566
3
4
Received nack credit for flit 249534
Requeued flit 249534
Received nack credit for flit 339257
Requeued flit 339257
Received nack credit for flit 260421
Requeued flit 260421
1
5
Received nack credit for flit 364822
Requeued flit 364822
Received nack credit for flit 301564
Requeued flit 301564
2
2
Received nack credit for flit 361886
Requeued flit 361886
Received nack credit for flit 384049
Requeued flit 384049
1
Received nack credit for flit 370839
Requeued flit 370839
5
8
Received nack credit for flit 334854
Requeued flit 334854
Received nack credit for flit 231003
Requeued flit 231003
1
Received nack credit for flit 371133
Requeued flit 371133
1
4
Received nack credit for flit 388231
Requeued flit 388231
1
Received nack credit for flit 330736
Requeued flit 330736
Received nack credit for flit 385173
Requeued flit 385173
2
Received nack credit for flit 340567
Requeued flit 340567
4
1
6
Received nack credit for flit 338726
Requeued flit 338726
7
Received nack credit for flit 361121
Requeued flit 361121
Received nack credit for flit 270696
Requeued flit 270696
2
Received nack credit for flit 217890
Requeued flit 217890
3
Received nack credit for flit 389277
Requeued flit 389277
1
Received nack credit for flit 343902
Requeued flit 343902
Received nack credit for flit 338161
Requeued flit 338161
6
1
Received nack credit for flit 255357
Requeued flit 255357
Received nack credit for flit 383445
Requeued flit 383445
2
4
Received nack credit for flit 371364
Requeued flit 371364
Received nack credit for flit 229451
Requeued flit 229451
1
4
3
Received nack credit for flit 271749
Requeued flit 271749
2
Received nack credit for flit 338622
Requeued flit 338622
4
Received nack credit for flit 369993
Requeued flit 369993
Received nack credit for flit 281419
Requeued flit 281419
8
Received nack credit for flit 368944
Requeued flit 368944
7
Received nack credit for flit 333050
Requeued flit 333050
1
Received nack credit for flit 227112
Requeued flit 227112
Received nack credit for flit 384967
Requeued flit 384967
5
Received nack credit for flit 253512
Requeued flit 253512
3
1
Received nack credit for flit 327822
Requeued flit 327822
Received nack credit for flit 370311
Requeued flit 370311
Class 0:
Packet latency average = 1073.59
	minimum = 5
	maximum = 5231
Network latency average = 1045.63
	minimum = 5
	maximum = 5231
Slowest packet = 209344
Flit latency average = 1045.63
	minimum = 5
	maximum = 5231
Slowest flit = 209344
Fragmentation average = 0
	minimum = 0
	maximum = 0
Injected packet rate average = 0.612431
	minimum = 0.4844 (at node 25)
	maximum = 0.7107 (at node 3)
Accepted packet rate average = 0.509375
	minimum = 0.4966 (at node 18)
	maximum = 0.5264 (at node 14)
Injected flit rate average = 0.612431
	minimum = 0.4844 (at node 25)
	maximum = 0.7107 (at node 3)
Accepted flit rate average= 0.509375
	minimum = 0.4966 (at node 18)
	maximum = 0.5264 (at node 14)
Injected packet length average = 1
Accepted packet length average = 1
Total in-flight flits = 65982 (0 measured)
latency change    = 1
throughput change = 1
Average latency for class 0 exceeded 500 cycles. Aborting simulation.
Too many sample periods needed to converge
Simulation unstable, ending ...
Total run time 56.2799
