BEGIN Configuration File: examples/ecc_mesh88_config_1_0.700_link_4
// $Id$

// Copyright (c) 2007-2015, Trustees of The Leland Stanford Junior University
// All rights reserved.
//
// Redistribution and use in source and binary forms, with or without
// modification, are permitted provided that the following conditions are met:
//
// Redistributions of source code must retain the above copyright notice, this
// list of conditions and the following disclaimer.
// Redistributions in binary form must reproduce the above copyright notice,
// this list of conditions and the following disclaimer in the documentation
// and/or other materials provided with the distribution.
//
// THIS SOFTWARE IS PROVIDED BY THE COPYRIGHT HOLDERS AND CONTRIBUTORS "AS IS"
// AND ANY EXPRESS OR IMPLIED WARRANTIES, INCLUDING, BUT NOT LIMITED TO, THE
// IMPLIED WARRANTIES OF MERCHANTABILITY AND FITNESS FOR A PARTICULAR PURPOSE
// ARE DISCLAIMED. IN NO EVENT SHALL THE COPYRIGHT OWNER OR CONTRIBUTORS BE
// LIABLE FOR ANY DIRECT, INDIRECT, INCIDENTAL, SPECIAL, EXEMPLARY, OR
// CONSEQUENTIAL DAMAGES (INCLUDING, BUT NOT LIMITED TO, PROCUREMENT OF
// SUBSTITUTE GOODS OR SERVICES; LOSS OF USE, DATA, OR PROFITS; OR BUSINESS
// INTERRUPTION) HOWEVER CAUSED AND ON ANY THEORY OF LIABILITY, WHETHER IN
// CONTRACT, STRICT LIABILITY, OR TORT (INCLUDING NEGLIGENCE OR OTHERWISE)
// ARISING IN ANY WAY OUT OF THE USE OF THIS SOFTWARE, EVEN IF ADVISED OF THE
// POSSIBILITY OF SUCH DAMAGE.

// Dragonfly
//




vc_buf_size = 256;


wait_for_tail_credit = 0;

//
// Router architecture
//
vc_allocator = separable_input_first; 
sw_allocator = separable_input_first;
alloc_iters  = 1;

credit_delay   = 2;
routing_delay  = 0;
vc_alloc_delay = 1;
sw_alloc_delay = 1;
st_final_delay = 1;

input_speedup     = 1;
output_speedup    = 1;
internal_speedup  = 2.0;


warmup_periods = 3;
sim_count          = 1;

sample_period  = 10000;  


routing_function = dor;
num_vcs     = 2;

priority = none;
traffic       = uniform; 

injection_rate = 0.7;
packet_size = 1;
injection_rate_uses_flits = 1;

topology = mesh;

k  = 8;
n  = 2;

fer = 4;
ecc = link;

watch_out=-;
//watch_file = watch.txt;

ecc = link;

stats_out = examples/ecc_mesh88_config_1_0.700_link_4.m;

END Configuration File: examples/ecc_mesh88_config_1_0.700_link_4
5
Received nack credit for flit 257
Requeued flit 257
1
Received nack credit for flit 2591
Requeued flit 2591
1
Received nack credit for flit 2987
Requeued flit 2987
4
Received nack credit for flit 4163
Requeued flit 4163
1
Received nack credit for flit 7072
Requeued flit 7072
1
Received nack credit for flit 9123
Requeued flit 9123
2
Received nack credit for flit 9190
Requeued flit 9190
1
Received nack credit for flit 11140
Requeued flit 11140
11
Received nack credit for flit 5114
Requeued flit 5114
2
Received nack credit for flit 14027
Requeued flit 14027
6
Received nack credit for flit 10877
Requeued flit 10877
5
Received nack credit for flit 14102
Requeued flit 14102
1
Received nack credit for flit 19869
Requeued flit 19869
2
Received nack credit for flit 20853
Requeued flit 20853
1
Received nack credit for flit 25051
Requeued flit 25051
9
Received nack credit for flit 15951
Requeued flit 15951
5
Received nack credit for flit 28572
Requeued flit 28572
2
Received nack credit for flit 31267
Requeued flit 31267
1
Received nack credit for flit 35303
Requeued flit 35303
1
Received nack credit for flit 40807
Requeued flit 40807
1
Received nack credit for flit 41441
Requeued flit 41441
7
Received nack credit for flit 38829
Requeued flit 38829
1
Received nack credit for flit 47761
Requeued flit 47761
2
Received nack credit for flit 45267
Requeued flit 45267
1
Received nack credit for flit 52618
Requeued flit 52618
2
Received nack credit for flit 53456
Requeued flit 53456
1
Received nack credit for flit 59872
Requeued flit 59872
3
Received nack credit for flit 56312
Requeued flit 56312
1
Received nack credit for flit 67479
Requeued flit 67479
6
2
Received nack credit for flit 45101
Requeued flit 45101
Received nack credit for flit 66110
Requeued flit 66110
2
Received nack credit for flit 84206
Requeued flit 84206
1
Received nack credit for flit 84713
Requeued flit 84713
1
Received nack credit for flit 81797
Requeued flit 81797
1
Received nack credit for flit 73657
Requeued flit 73657
1
Received nack credit for flit 93812
Requeued flit 93812
1
Received nack credit for flit 83143
Requeued flit 83143
4
Received nack credit for flit 64147
Requeued flit 64147
3
Received nack credit for flit 68478
Requeued flit 68478
1
1
Received nack credit for flit 97074
Requeued flit 97074
Received nack credit for flit 76678
Requeued flit 76678
7
Received nack credit for flit 80371
Requeued flit 80371
6
Received nack credit for flit 62885
Requeued flit 62885
1
11
Received nack credit for flit 103796
Requeued flit 103796
Received nack credit for flit 50447
Requeued flit 50447
3
Received nack credit for flit 72897
Requeued flit 72897
1
Received nack credit for flit 86012
Requeued flit 86012
1
Received nack credit for flit 110020
Requeued flit 110020
2
Received nack credit for flit 111399
Requeued flit 111399
2
Received nack credit for flit 115044
Requeued flit 115044
6
Received nack credit for flit 82247
Requeued flit 82247
3
Received nack credit for flit 86365
Requeued flit 86365
1
Received nack credit for flit 133506
Requeued flit 133506
3
Received nack credit for flit 98649
Requeued flit 98649
1
Received nack credit for flit 136330
Requeued flit 136330
2
Received nack credit for flit 129760
Requeued flit 129760
1
Received nack credit for flit 138674
Requeued flit 138674
3
Received nack credit for flit 123792
Requeued flit 123792
7
Received nack credit for flit 108848
Requeued flit 108848
6
Received nack credit for flit 103676
Requeued flit 103676
5
Received nack credit for flit 87898
Requeued flit 87898
1
Received nack credit for flit 135463
Requeued flit 135463
1
1
Received nack credit for flit 150619
Requeued flit 150619
Received nack credit for flit 149765
Requeued flit 149765
1
Received nack credit for flit 151531
Requeued flit 151531
3
Received nack credit for flit 155589
Requeued flit 155589
5
Received nack credit for flit 152966
Requeued flit 152966
3
Received nack credit for flit 165091
Requeued flit 165091
1
Received nack credit for flit 148671
Requeued flit 148671
1
Received nack credit for flit 166496
Requeued flit 166496
7
Received nack credit for flit 103131
Requeued flit 103131
3
Received nack credit for flit 149803
Requeued flit 149803
1
Received nack credit for flit 177181
Requeued flit 177181
7
Received nack credit for flit 147339
Requeued flit 147339
4
Received nack credit for flit 177672
Requeued flit 177672
4
Received nack credit for flit 156330
Requeued flit 156330
1
Received nack credit for flit 158853
Requeued flit 158853
6
1
Received nack credit for flit 108377
Requeued flit 108377
Received nack credit for flit 184571
Requeued flit 184571
2
Received nack credit for flit 155586
Requeued flit 155586
3
Received nack credit for flit 187361
Requeued flit 187361
7
Received nack credit for flit 121390
Requeued flit 121390
2
Received nack credit for flit 146795
Requeued flit 146795
1
Received nack credit for flit 172032
Requeued flit 172032
7
Received nack credit for flit 119284
Requeued flit 119284
1
Received nack credit for flit 174420
Requeued flit 174420
7
Received nack credit for flit 151382
Requeued flit 151382
6
Received nack credit for flit 121840
Requeued flit 121840
3
Received nack credit for flit 131110
Requeued flit 131110
1
Received nack credit for flit 175374
Requeued flit 175374
3
Received nack credit for flit 146488
Requeued flit 146488
2
7
Received nack credit for flit 141827
Requeued flit 141827
Received nack credit for flit 184958
Requeued flit 184958
1
Received nack credit for flit 187300
Requeued flit 187300
1
Received nack credit for flit 211376
Requeued flit 211376
6
Received nack credit for flit 154345
Requeued flit 154345
7
Received nack credit for flit 120780
Requeued flit 120780
3
Received nack credit for flit 147998
Requeued flit 147998
1
Received nack credit for flit 199095
Requeued flit 199095
2
Received nack credit for flit 187102
Requeued flit 187102
4
Received nack credit for flit 168214
Requeued flit 168214
1
Received nack credit for flit 182529
Requeued flit 182529
3
Received nack credit for flit 172619
Requeued flit 172619
2
9
3
Received nack credit for flit 202382
Requeued flit 202382
Received nack credit for flit 125110
Requeued flit 125110
Received nack credit for flit 206457
Requeued flit 206457
8
Received nack credit for flit 130005
Requeued flit 130005
2
Received nack credit for flit 162107
Requeued flit 162107
4
Received nack credit for flit 143101
Requeued flit 143101
3
Received nack credit for flit 211862
Requeued flit 211862
1
Received nack credit for flit 226094
Requeued flit 226094
3
Received nack credit for flit 150711
Requeued flit 150711
1
Received nack credit for flit 224685
Requeued flit 224685
4
Received nack credit for flit 202465
Requeued flit 202465
5
Received nack credit for flit 194897
Requeued flit 194897
3
Received nack credit for flit 160687
Requeued flit 160687
6
Received nack credit for flit 164822
Requeued flit 164822
6
Received nack credit for flit 176227
Requeued flit 176227
6
Received nack credit for flit 148419
Requeued flit 148419
1
Received nack credit for flit 231961
Requeued flit 231961
6
Received nack credit for flit 166406
Requeued flit 166406
3
Received nack credit for flit 168900
Requeued flit 168900
6
3
Received nack credit for flit 229265
Requeued flit 229265
Received nack credit for flit 210323
Requeued flit 210323
3
Received nack credit for flit 260304
Requeued flit 260304
3
Received nack credit for flit 252979
Requeued flit 252979
7
Received nack credit for flit 226161
Requeued flit 226161
1
Received nack credit for flit 269398
Requeued flit 269398
3
Received nack credit for flit 238692
Requeued flit 238692
4
Received nack credit for flit 173484
Requeued flit 173484
1
Received nack credit for flit 261093
Requeued flit 261093
5
Received nack credit for flit 168911
Requeued flit 168911
5
Received nack credit for flit 273074
Requeued flit 273074
1
Received nack credit for flit 262977
Requeued flit 262977
1
Received nack credit for flit 268342
Requeued flit 268342
1
Received nack credit for flit 277718
Requeued flit 277718
1
Received nack credit for flit 224751
Requeued flit 224751
9
Received nack credit for flit 150004
Requeued flit 150004
1
Received nack credit for flit 246797
Requeued flit 246797
5
Received nack credit for flit 168001
Requeued flit 168001
1
Received nack credit for flit 281937
Requeued flit 281937
5
Received nack credit for flit 282933
Requeued flit 282933
1
Received nack credit for flit 274240
Requeued flit 274240
3
Received nack credit for flit 196344
Requeued flit 196344
1
Received nack credit for flit 253012
Requeued flit 253012
2
Received nack credit for flit 207315
Requeued flit 207315
6
Received nack credit for flit 262214
Requeued flit 262214
1
Received nack credit for flit 288585
Requeued flit 288585
1
Received nack credit for flit 254962
Requeued flit 254962
3
Received nack credit for flit 242485
Requeued flit 242485
5
Received nack credit for flit 184048
Requeued flit 184048
8
Received nack credit for flit 194551
Requeued flit 194551
2
Received nack credit for flit 286289
Requeued flit 286289
1
Received nack credit for flit 305592
Requeued flit 305592
3
Received nack credit for flit 279000
Requeued flit 279000
8
Received nack credit for flit 184295
Requeued flit 184295
1
Received nack credit for flit 258406
Requeued flit 258406
2
Received nack credit for flit 281715
Requeued flit 281715
2
Received nack credit for flit 255303
Requeued flit 255303
1
Received nack credit for flit 309405
Requeued flit 309405
2
Received nack credit for flit 311716
Requeued flit 311716
3
Received nack credit for flit 311308
Requeued flit 311308
5
Received nack credit for flit 185948
Requeued flit 185948
5
Received nack credit for flit 267386
Requeued flit 267386
1
Received nack credit for flit 309380
Requeued flit 309380
1
Received nack credit for flit 274506
Requeued flit 274506
3
Received nack credit for flit 218448
Requeued flit 218448
1
Received nack credit for flit 314467
Requeued flit 314467
2
3
Received nack credit for flit 240325
Requeued flit 240325
Received nack credit for flit 309509
Requeued flit 309509
4
Received nack credit for flit 311131
Requeued flit 311131
6
Received nack credit for flit 314566
Requeued flit 314566
4
Received nack credit for flit 286529
Requeued flit 286529
1
Received nack credit for flit 341152
Requeued flit 341152
7
Received nack credit for flit 287474
Requeued flit 287474
5
Received nack credit for flit 294321
Requeued flit 294321
1
Received nack credit for flit 345824
Requeued flit 345824
2
Received nack credit for flit 259088
Requeued flit 259088
1
2
Received nack credit for flit 329998
Requeued flit 329998
Received nack credit for flit 341293
Requeued flit 341293
2
Received nack credit for flit 327747
Requeued flit 327747
6
Received nack credit for flit 206248
Requeued flit 206248
1
Received nack credit for flit 348716
Requeued flit 348716
2
Received nack credit for flit 333093
Requeued flit 333093
1
Received nack credit for flit 309639
Requeued flit 309639
1
Received nack credit for flit 340562
Requeued flit 340562
6
Received nack credit for flit 213902
Requeued flit 213902
9
Received nack credit for flit 206353
Requeued flit 206353
4
Received nack credit for flit 317299
Requeued flit 317299
2
Received nack credit for flit 344577
Requeued flit 344577
4
Received nack credit for flit 345407
Requeued flit 345407
2
Received nack credit for flit 264983
Requeued flit 264983
6
2
Received nack credit for flit 320675
Requeued flit 320675
Received nack credit for flit 309529
Requeued flit 309529
1
Received nack credit for flit 355052
Requeued flit 355052
1
Received nack credit for flit 321032
Requeued flit 321032
1
Received nack credit for flit 353827
Requeued flit 353827
1
Received nack credit for flit 373484
Requeued flit 373484
1
Received nack credit for flit 323673
Requeued flit 323673
2
Received nack credit for flit 273464
Requeued flit 273464
1
Received nack credit for flit 359408
Requeued flit 359408
4
Received nack credit for flit 365952
Requeued flit 365952
7
Received nack credit for flit 328273
Requeued flit 328273
7
Received nack credit for flit 354738
Requeued flit 354738
1
Received nack credit for flit 341110
Requeued flit 341110
Class 0:
Packet latency average = 1084.04
	minimum = 5
	maximum = 5216
Network latency average = 1057.02
	minimum = 5
	maximum = 5202
Slowest packet = 211553
Flit latency average = 1057.02
	minimum = 5
	maximum = 5202
Slowest flit = 211553
Fragmentation average = 0
	minimum = 0
	maximum = 0
Injected packet rate average = 0.613473
	minimum = 0.4915 (at node 6)
	maximum = 0.7078 (at node 59)
Accepted packet rate average = 0.509563
	minimum = 0.4894 (at node 21)
	maximum = 0.5256 (at node 56)
Injected flit rate average = 0.613473
	minimum = 0.4915 (at node 6)
	maximum = 0.7078 (at node 59)
Accepted flit rate average= 0.509563
	minimum = 0.4894 (at node 21)
	maximum = 0.5256 (at node 56)
Injected packet length average = 1
Accepted packet length average = 1
Total in-flight flits = 66525 (0 measured)
latency change    = 1
throughput change = 1
Average latency for class 0 exceeded 500 cycles. Aborting simulation.
Too many sample periods needed to converge
Simulation unstable, ending ...
Total run time 52.3518
