BEGIN Configuration File: examples/ecc_mesh88_config_1_0.600_packet_4
// $Id$

// Copyright (c) 2007-2015, Trustees of The Leland Stanford Junior University
// All rights reserved.
//
// Redistribution and use in source and binary forms, with or without
// modification, are permitted provided that the following conditions are met:
//
// Redistributions of source code must retain the above copyright notice, this
// list of conditions and the following disclaimer.
// Redistributions in binary form must reproduce the above copyright notice,
// this list of conditions and the following disclaimer in the documentation
// and/or other materials provided with the distribution.
//
// THIS SOFTWARE IS PROVIDED BY THE COPYRIGHT HOLDERS AND CONTRIBUTORS "AS IS"
// AND ANY EXPRESS OR IMPLIED WARRANTIES, INCLUDING, BUT NOT LIMITED TO, THE
// IMPLIED WARRANTIES OF MERCHANTABILITY AND FITNESS FOR A PARTICULAR PURPOSE
// ARE DISCLAIMED. IN NO EVENT SHALL THE COPYRIGHT OWNER OR CONTRIBUTORS BE
// LIABLE FOR ANY DIRECT, INDIRECT, INCIDENTAL, SPECIAL, EXEMPLARY, OR
// CONSEQUENTIAL DAMAGES (INCLUDING, BUT NOT LIMITED TO, PROCUREMENT OF
// SUBSTITUTE GOODS OR SERVICES; LOSS OF USE, DATA, OR PROFITS; OR BUSINESS
// INTERRUPTION) HOWEVER CAUSED AND ON ANY THEORY OF LIABILITY, WHETHER IN
// CONTRACT, STRICT LIABILITY, OR TORT (INCLUDING NEGLIGENCE OR OTHERWISE)
// ARISING IN ANY WAY OUT OF THE USE OF THIS SOFTWARE, EVEN IF ADVISED OF THE
// POSSIBILITY OF SUCH DAMAGE.

// Dragonfly
//




vc_buf_size = 256;


wait_for_tail_credit = 0;

//
// Router architecture
//
vc_allocator = separable_input_first; 
sw_allocator = separable_input_first;
alloc_iters  = 1;

credit_delay   = 2;
routing_delay  = 0;
vc_alloc_delay = 1;
sw_alloc_delay = 1;
st_final_delay = 1;

input_speedup     = 1;
output_speedup    = 1;
internal_speedup  = 2.0;


warmup_periods = 3;
sim_count          = 1;

sample_period  = 10000;  


routing_function = dor;
num_vcs     = 2;

priority = none;
traffic       = uniform; 

injection_rate = 0.6;
packet_size = 1;
injection_rate_uses_flits = 1;

topology = mesh;

k  = 8;
n  = 2;

fer = 4;
ecc = link;

watch_out=-;
//watch_file = watch.txt;

ecc = packet;

stats_out = examples/ecc_mesh88_config_1_0.600_packet_4.m;

END Configuration File: examples/ecc_mesh88_config_1_0.600_packet_4
Additional hops: 6
Set signal latency stall time: 12
Additional hops: 14
Set signal latency stall time: 16
Reenqueueing errored packet 1183 at time 71
Reenqueueing errored packet 916 at time 83
Additional hops: 23
Set signal latency stall time: 18
Reenqueueing errored packet 3094 at time 139
Additional hops: 32
Set signal latency stall time: 18
Additional hops: 45
Set signal latency stall time: 26
Reenqueueing errored packet 4889 at time 198
Additional hops: 49
Set signal latency stall time: 8
Reenqueueing errored packet 3796 at time 224
Reenqueueing errored packet 6981 at time 225
Additional hops: 52
Set signal latency stall time: 6
Reenqueueing errored packet 9861 at time 277
Additional hops: 61
Set signal latency stall time: 18
Additional hops: 67
Set signal latency stall time: 12
Reenqueueing errored packet 6026 at time 307
Reenqueueing errored packet 8570 at time 314
Additional hops: 71
Set signal latency stall time: 8
Reenqueueing errored packet 13199 at time 381
Additional hops: 73
Set signal latency stall time: 4
Reenqueueing errored packet 14430 at time 393
Additional hops: 79
Set signal latency stall time: 12
Reenqueueing errored packet 13068 at time 495
Additional hops: 86
Set signal latency stall time: 14
Reenqueueing errored packet 19362 at time 576
Additional hops: 91
Set signal latency stall time: 10
Reenqueueing errored packet 20402 at time 598
Additional hops: 99
Set signal latency stall time: 16
Reenqueueing errored packet 20435 at time 622
Additional hops: 105
Set signal latency stall time: 12
Reenqueueing errored packet 18433 at time 641
Additional hops: 112
Set signal latency stall time: 14
Additional hops: 120
Set signal latency stall time: 16
Reenqueueing errored packet 19381 at time 697
Reenqueueing errored packet 19668 at time 712
Additional hops: 124
Set signal latency stall time: 8
Reenqueueing errored packet 30994 at time 901
Additional hops: 127
Set signal latency stall time: 6
Additional hops: 136
Set signal latency stall time: 18
Reenqueueing errored packet 36435 at time 970
Reenqueueing errored packet 33721 at time 985
Additional hops: 143
Set signal latency stall time: 14
Reenqueueing errored packet 27437 at time 1033
Additional hops: 152
Set signal latency stall time: 18
Reenqueueing errored packet 36516 at time 1084
Additional hops: 158
Set signal latency stall time: 12
Additional hops: 162
Set signal latency stall time: 8
Additional hops: 171
Set signal latency stall time: 18
Reenqueueing errored packet 40699 at time 1127
Reenqueueing errored packet 41797 at time 1128
Reenqueueing errored packet 38051 at time 1138
Additional hops: 176
Set signal latency stall time: 10
Reenqueueing errored packet 42092 at time 1254
Additional hops: 182
Set signal latency stall time: 12
Reenqueueing errored packet 43418 at time 1302
Additional hops: 190
Set signal latency stall time: 16
Additional hops: 197
Set signal latency stall time: 14
Reenqueueing errored packet 36828 at time 1394
Reenqueueing errored packet 47122 at time 1396
Additional hops: 207
Set signal latency stall time: 20
Reenqueueing errored packet 39295 at time 1462
Additional hops: 210
Set signal latency stall time: 6
Additional hops: 219
Set signal latency stall time: 18
Reenqueueing errored packet 58411 at time 1544
Reenqueueing errored packet 49127 at time 1562
Additional hops: 225
Set signal latency stall time: 12
Reenqueueing errored packet 54299 at time 1603
Additional hops: 231
Set signal latency stall time: 12
Additional hops: 244
Set signal latency stall time: 26
Reenqueueing errored packet 54802 at time 1630
Reenqueueing errored packet 44076 at time 1649
Additional hops: 248
Set signal latency stall time: 8
Reenqueueing errored packet 60550 at time 1659
Additional hops: 257
Set signal latency stall time: 18
Reenqueueing errored packet 46019 at time 1700
Additional hops: 265
Set signal latency stall time: 16
Additional hops: 269
Set signal latency stall time: 8
Reenqueueing errored packet 57108 at time 1729
Reenqueueing errored packet 65348 at time 1733
Additional hops: 274
Set signal latency stall time: 10
Reenqueueing errored packet 55714 at time 1779
Additional hops: 282
Set signal latency stall time: 16
Reenqueueing errored packet 52913 at time 1811
Additional hops: 288
Set signal latency stall time: 12
Reenqueueing errored packet 59245 at time 1937
Additional hops: 294
Set signal latency stall time: 12
Reenqueueing errored packet 58164 at time 1957
Additional hops: 304
Set signal latency stall time: 20
Additional hops: 309
Set signal latency stall time: 10
Reenqueueing errored packet 53009 at time 1997
Reenqueueing errored packet 70794 at time 2002
Additional hops: 316
Set signal latency stall time: 14
Reenqueueing errored packet 66881 at time 2162
Additional hops: 322
Set signal latency stall time: 12
Reenqueueing errored packet 78776 at time 2218
Additional hops: 327
Set signal latency stall time: 10
Reenqueueing errored packet 84166 at time 2233
Additional hops: 334
Set signal latency stall time: 14
Reenqueueing errored packet 77054 at time 2257
Additional hops: 341
Set signal latency stall time: 14
Reenqueueing errored packet 76008 at time 2285
Additional hops: 347
Set signal latency stall time: 12
Reenqueueing errored packet 70482 at time 2317
Additional hops: 355
Set signal latency stall time: 16
Reenqueueing errored packet 69966 at time 2359
Additional hops: 356
Set signal latency stall time: 2
Reenqueueing errored packet 92022 at time 2413
Additional hops: 366
Set signal latency stall time: 20
Reenqueueing errored packet 68678 at time 2462
Additional hops: 380
Set signal latency stall time: 28
Reenqueueing errored packet 66888 at time 2521
Additional hops: 386
Set signal latency stall time: 12
Reenqueueing errored packet 84789 at time 2546
Additional hops: 396
Set signal latency stall time: 20
Additional hops: 406
Set signal latency stall time: 20
Additional hops: 418
Set signal latency stall time: 24
Reenqueueing errored packet 70040 at time 2588
Reenqueueing errored packet 74376 at time 2592
Reenqueueing errored packet 71329 at time 2601
Additional hops: 423
Set signal latency stall time: 10
Reenqueueing errored packet 89223 at time 2626
Additional hops: 433
Set signal latency stall time: 20
Additional hops: 438
Set signal latency stall time: 10
Reenqueueing errored packet 86819 at time 2723
Reenqueueing errored packet 78364 at time 2724
Additional hops: 441
Set signal latency stall time: 6
Reenqueueing errored packet 103518 at time 2737
Additional hops: 449
Set signal latency stall time: 16
Reenqueueing errored packet 88713 at time 2852
Additional hops: 455
Set signal latency stall time: 12
Reenqueueing errored packet 96778 at time 2969
Additional hops: 464
Set signal latency stall time: 18
Reenqueueing errored packet 95885 at time 3035
Additional hops: 473
Set signal latency stall time: 18
Reenqueueing errored packet 99164 at time 3096
Additional hops: 479
Set signal latency stall time: 12
Reenqueueing errored packet 106973 at time 3140
Additional hops: 487
Set signal latency stall time: 16
Additional hops: 492
Set signal latency stall time: 10
Reenqueueing errored packet 100018 at time 3249
Reenqueueing errored packet 110361 at time 3253
Additional hops: 500
Set signal latency stall time: 16
Additional hops: 505
Set signal latency stall time: 10
Additional hops: 513
Set signal latency stall time: 16
Reenqueueing errored packet 103214 at time 3339
Reenqueueing errored packet 100328 at time 3339
Reenqueueing errored packet 97192 at time 3350
Additional hops: 515
Set signal latency stall time: 4
Reenqueueing errored packet 123711 at time 3429
Additional hops: 524
Set signal latency stall time: 18
Additional hops: 530
Set signal latency stall time: 12
Reenqueueing errored packet 95656 at time 3469
Reenqueueing errored packet 108640 at time 3481
Additional hops: 536
Set signal latency stall time: 12
Reenqueueing errored packet 119674 at time 3494
Additional hops: 543
Set signal latency stall time: 14
Reenqueueing errored packet 121907 at time 3519
Additional hops: 550
Set signal latency stall time: 14
Reenqueueing errored packet 106670 at time 3614
Additional hops: 560
Set signal latency stall time: 20
Reenqueueing errored packet 104110 at time 3646
Additional hops: 568
Set signal latency stall time: 16
Additional hops: 580
Set signal latency stall time: 24
Reenqueueing errored packet 98370 at time 3676
Additional hops: 590
Set signal latency stall time: 20
Reenqueueing errored packet 102877 at time 3692
Additional hops: 596
Set signal latency stall time: 12
Reenqueueing errored packet 103162 at time 3698
Reenqueueing errored packet 118242 at time 3706
Additional hops: 602
Set signal latency stall time: 12
Reenqueueing errored packet 138967 at time 3729
Additional hops: 609
Set signal latency stall time: 14
Reenqueueing errored packet 125652 at time 3778
Additional hops: 613
Set signal latency stall time: 8
Reenqueueing errored packet 145058 at time 3828
Additional hops: 621
Set signal latency stall time: 16
Reenqueueing errored packet 112289 at time 3851
Additional hops: 628
Set signal latency stall time: 14
Additional hops: 639
Set signal latency stall time: 22
Additional hops: 645
Set signal latency stall time: 12
Reenqueueing errored packet 117118 at time 3875
Reenqueueing errored packet 133214 at time 3887
Reenqueueing errored packet 106214 at time 3897
Additional hops: 653
Set signal latency stall time: 16
Reenqueueing errored packet 119122 at time 4009
Additional hops: 659
Set signal latency stall time: 12
Reenqueueing errored packet 128844 at time 4092
Additional hops: 665
Set signal latency stall time: 12
Additional hops: 667
Set signal latency stall time: 4
Reenqueueing errored packet 130274 at time 4214
Reenqueueing errored packet 160810 at time 4215
Additional hops: 675
Set signal latency stall time: 16
Additional hops: 679
Set signal latency stall time: 8
Additional hops: 686
Set signal latency stall time: 14
Reenqueueing errored packet 150328 at time 4232
Reenqueueing errored packet 133034 at time 4232
Reenqueueing errored packet 129733 at time 4239
Additional hops: 695
Set signal latency stall time: 18
Additional hops: 701
Set signal latency stall time: 12
Reenqueueing errored packet 128336 at time 4274
Reenqueueing errored packet 141515 at time 4281
Additional hops: 710
Set signal latency stall time: 18
Reenqueueing errored packet 119430 at time 4334
Additional hops: 717
Set signal latency stall time: 14
Reenqueueing errored packet 132738 at time 4368
Additional hops: 725
Set signal latency stall time: 16
Reenqueueing errored packet 123222 at time 4440
Additional hops: 730
Set signal latency stall time: 10
Reenqueueing errored packet 133829 at time 4486
Additional hops: 736
Set signal latency stall time: 12
Reenqueueing errored packet 151218 at time 4547
Additional hops: 745
Set signal latency stall time: 18
Reenqueueing errored packet 154695 at time 4579
Additional hops: 753
Set signal latency stall time: 16
Reenqueueing errored packet 134999 at time 4614
Additional hops: 755
Set signal latency stall time: 4
Reenqueueing errored packet 179804 at time 4739
Additional hops: 758
Set signal latency stall time: 6
Additional hops: 767
Set signal latency stall time: 18
Reenqueueing errored packet 182579 at time 4795
Reenqueueing errored packet 155375 at time 4810
Additional hops: 772
Set signal latency stall time: 10
Reenqueueing errored packet 168618 at time 4882
Additional hops: 781
Set signal latency stall time: 18
Reenqueueing errored packet 146772 at time 4931
Additional hops: 784
Set signal latency stall time: 6
Reenqueueing errored packet 188329 at time 4951
Additional hops: 788
Set signal latency stall time: 8
Reenqueueing errored packet 188070 at time 5009
Additional hops: 795
Set signal latency stall time: 14
Reenqueueing errored packet 159114 at time 5076
Additional hops: 799
Set signal latency stall time: 8
Reenqueueing errored packet 160258 at time 5110
Additional hops: 811
Set signal latency stall time: 24
Additional hops: 817
Set signal latency stall time: 12
Reenqueueing errored packet 158419 at time 5176
Reenqueueing errored packet 146300 at time 5184
Additional hops: 824
Set signal latency stall time: 14
Reenqueueing errored packet 159047 at time 5222
Additional hops: 827
Set signal latency stall time: 6
Reenqueueing errored packet 193551 at time 5232
Additional hops: 831
Set signal latency stall time: 8
Reenqueueing errored packet 166920 at time 5260
Additional hops: 842
Set signal latency stall time: 22
Additional hops: 850
Set signal latency stall time: 16
Additional hops: 855
Set signal latency stall time: 10
Reenqueueing errored packet 184768 at time 5282
Reenqueueing errored packet 147717 at time 5285
Reenqueueing errored packet 166820 at time 5287
Additional hops: 860
Set signal latency stall time: 10
Additional hops: 870
Set signal latency stall time: 20
Reenqueueing errored packet 166932 at time 5302
Reenqueueing errored packet 151636 at time 5316
Additional hops: 874
Set signal latency stall time: 8
Reenqueueing errored packet 198273 at time 5364
Additional hops: 880
Set signal latency stall time: 12
Reenqueueing errored packet 159717 at time 5378
Additional hops: 886
Set signal latency stall time: 12
Reenqueueing errored packet 170574 at time 5407
Additional hops: 890
Set signal latency stall time: 8
Reenqueueing errored packet 171093 at time 5448
Additional hops: 895
Set signal latency stall time: 10
Additional hops: 903
Set signal latency stall time: 16
Reenqueueing errored packet 174613 at time 5472
Reenqueueing errored packet 172457 at time 5486
Additional hops: 913
Set signal latency stall time: 20
Reenqueueing errored packet 188628 at time 5585
Additional hops: 920
Set signal latency stall time: 14
Reenqueueing errored packet 180922 at time 5610
Additional hops: 925
Set signal latency stall time: 10
Reenqueueing errored packet 202021 at time 5638
Additional hops: 935
Set signal latency stall time: 20
Reenqueueing errored packet 192929 at time 5679
Additional hops: 948
Set signal latency stall time: 26
Reenqueueing errored packet 159540 at time 5732
Additional hops: 953
Set signal latency stall time: 10
Reenqueueing errored packet 199521 at time 5753
Additional hops: 958
Set signal latency stall time: 10
Reenqueueing errored packet 199104 at time 5786
Additional hops: 962
Set signal latency stall time: 8
Additional hops: 969
Set signal latency stall time: 14
Additional hops: 981
Set signal latency stall time: 24
Reenqueueing errored packet 203480 at time 5882
Additional hops: 990
Set signal latency stall time: 18
Reenqueueing errored packet 202368 at time 5890
Additional hops: 999
Set signal latency stall time: 18
Reenqueueing errored packet 156873 at time 5904
Reenqueueing errored packet 190808 at time 5907
Reenqueueing errored packet 205126 at time 5919
Additional hops: 1008
Set signal latency stall time: 18
Reenqueueing errored packet 187236 at time 5968
Additional hops: 1015
Set signal latency stall time: 14
Reenqueueing errored packet 189808 at time 5990
Additional hops: 1025
Set signal latency stall time: 20
Reenqueueing errored packet 179089 at time 6045
Additional hops: 1032
Set signal latency stall time: 14
Reenqueueing errored packet 188435 at time 6081
Additional hops: 1038
Set signal latency stall time: 12
Reenqueueing errored packet 197740 at time 6157
Additional hops: 1042
Set signal latency stall time: 8
Reenqueueing errored packet 222709 at time 6175
Additional hops: 1048
Set signal latency stall time: 12
Reenqueueing errored packet 198682 at time 6192
Additional hops: 1054
Set signal latency stall time: 12
Reenqueueing errored packet 222097 at time 6244
Additional hops: 1062
Set signal latency stall time: 16
Reenqueueing errored packet 212224 at time 6311
Additional hops: 1067
Set signal latency stall time: 10
Reenqueueing errored packet 212326 at time 6412
Additional hops: 1076
Set signal latency stall time: 18
Reenqueueing errored packet 186961 at time 6444
Additional hops: 1084
Set signal latency stall time: 16
Reenqueueing errored packet 201061 at time 6466
Additional hops: 1088
Set signal latency stall time: 8
Reenqueueing errored packet 228690 at time 6509
Additional hops: 1092
Set signal latency stall time: 8
Reenqueueing errored packet 236749 at time 6548
Additional hops: 1095
Set signal latency stall time: 6
Reenqueueing errored packet 251599 at time 6600
Additional hops: 1103
Set signal latency stall time: 16
Reenqueueing errored packet 227023 at time 6648
Additional hops: 1108
Set signal latency stall time: 10
Additional hops: 1117
Set signal latency stall time: 18
Reenqueueing errored packet 240553 at time 6692
Additional hops: 1127
Set signal latency stall time: 20
Reenqueueing errored packet 207375 at time 6702
Reenqueueing errored packet 199952 at time 6714
Additional hops: 1134
Set signal latency stall time: 14
Reenqueueing errored packet 259789 at time 6838
Additional hops: 1143
Set signal latency stall time: 18
Additional hops: 1151
Set signal latency stall time: 16
Reenqueueing errored packet 207293 at time 6904
Reenqueueing errored packet 228229 at time 6908
Additional hops: 1158
Set signal latency stall time: 14
Reenqueueing errored packet 239768 at time 6939
Additional hops: 1164
Set signal latency stall time: 12
Reenqueueing errored packet 249969 at time 6979
Additional hops: 1172
Set signal latency stall time: 16
Reenqueueing errored packet 227516 at time 7011
Additional hops: 1177
Set signal latency stall time: 10
Additional hops: 1186
Set signal latency stall time: 18
Reenqueueing errored packet 253838 at time 7178
Additional hops: 1194
Set signal latency stall time: 16
Reenqueueing errored packet 221680 at time 7193
Additional hops: 1202
Set signal latency stall time: 16
Reenqueueing errored packet 211141 at time 7207
Reenqueueing errored packet 225233 at time 7223
Additional hops: 1207
Set signal latency stall time: 10
Additional hops: 1215
Set signal latency stall time: 16
Reenqueueing errored packet 220763 at time 7254
Reenqueueing errored packet 212139 at time 7263
Additional hops: 1223
Set signal latency stall time: 16
Reenqueueing errored packet 250361 at time 7303
Additional hops: 1230
Set signal latency stall time: 14
Additional hops: 1237
Set signal latency stall time: 14
Reenqueueing errored packet 235615 at time 7332
Additional hops: 1239
Set signal latency stall time: 4
Reenqueueing errored packet 253510 at time 7340
Reenqueueing errored packet 237235 at time 7345
Additional hops: 1242
Set signal latency stall time: 6
Additional hops: 1249
Set signal latency stall time: 14
Reenqueueing errored packet 252368 at time 7389
Reenqueueing errored packet 224299 at time 7398
Additional hops: 1257
Set signal latency stall time: 16
Reenqueueing errored packet 239612 at time 7417
Additional hops: 1260
Set signal latency stall time: 6
Reenqueueing errored packet 285017 at time 7461
Additional hops: 1268
Set signal latency stall time: 16
Reenqueueing errored packet 238468 at time 7569
Additional hops: 1274
Set signal latency stall time: 12
Reenqueueing errored packet 220479 at time 7648
Additional hops: 1287
Set signal latency stall time: 26
Additional hops: 1293
Set signal latency stall time: 12
Reenqueueing errored packet 235349 at time 7790
Additional hops: 1295
Set signal latency stall time: 4
Reenqueueing errored packet 297694 at time 7795
Reenqueueing errored packet 213515 at time 7799
Additional hops: 1302
Set signal latency stall time: 14
Reenqueueing errored packet 264120 at time 7846
Additional hops: 1313
Set signal latency stall time: 22
Reenqueueing errored packet 222856 at time 7870
Additional hops: 1326
Set signal latency stall time: 26
Reenqueueing errored packet 228619 at time 7901
Additional hops: 1331
Set signal latency stall time: 10
Reenqueueing errored packet 245731 at time 7935
Additional hops: 1337
Set signal latency stall time: 12
Additional hops: 1342
Set signal latency stall time: 10
Reenqueueing errored packet 281492 at time 8016
Reenqueueing errored packet 279518 at time 8025
Additional hops: 1353
Set signal latency stall time: 22
Additional hops: 1360
Set signal latency stall time: 14
Reenqueueing errored packet 227951 at time 8164
Reenqueueing errored packet 311160 at time 8165
Additional hops: 1365
Set signal latency stall time: 10
Reenqueueing errored packet 293912 at time 8212
Additional hops: 1372
Set signal latency stall time: 14
Reenqueueing errored packet 259705 at time 8230
Additional hops: 1385
Set signal latency stall time: 26
Additional hops: 1393
Set signal latency stall time: 16
Reenqueueing errored packet 303678 at time 8293
Additional hops: 1401
Set signal latency stall time: 16
Reenqueueing errored packet 222776 at time 8296
Reenqueueing errored packet 241829 at time 8311
Additional hops: 1409
Set signal latency stall time: 16
Reenqueueing errored packet 240350 at time 8342
Additional hops: 1415
Set signal latency stall time: 12
Reenqueueing errored packet 291238 at time 8375
Additional hops: 1425
Set signal latency stall time: 20
Reenqueueing errored packet 256815 at time 8435
Additional hops: 1430
Set signal latency stall time: 10
Reenqueueing errored packet 246721 at time 8458
Additional hops: 1434
Set signal latency stall time: 8
Additional hops: 1438
Set signal latency stall time: 8
Reenqueueing errored packet 302923 at time 8472
Reenqueueing errored packet 302248 at time 8479
Additional hops: 1447
Set signal latency stall time: 18
Reenqueueing errored packet 263486 at time 8546
Additional hops: 1456
Set signal latency stall time: 18
Additional hops: 1462
Set signal latency stall time: 12
Reenqueueing errored packet 265752 at time 8570
Additional hops: 1466
Set signal latency stall time: 8
Reenqueueing errored packet 284937 at time 8587
Additional hops: 1469
Set signal latency stall time: 6
Additional hops: 1471
Set signal latency stall time: 4
Reenqueueing errored packet 289684 at time 8620
Reenqueueing errored packet 310316 at time 8622
Additional hops: 1480
Set signal latency stall time: 18
Reenqueueing errored packet 245631 at time 8654
Additional hops: 1487
Set signal latency stall time: 14
Reenqueueing errored packet 234377 at time 8670
Additional hops: 1492
Set signal latency stall time: 10
Reenqueueing errored packet 256169 at time 8723
Additional hops: 1495
Set signal latency stall time: 6
Reenqueueing errored packet 314744 at time 8743
Additional hops: 1504
Set signal latency stall time: 18
Additional hops: 1514
Set signal latency stall time: 20
Reenqueueing errored packet 319144 at time 8943
Additional hops: 1525
Set signal latency stall time: 22
Additional hops: 1532
Set signal latency stall time: 14
Reenqueueing errored packet 258538 at time 9025
Additional hops: 1536
Set signal latency stall time: 8
Reenqueueing errored packet 334188 at time 9134
Additional hops: 1544
Set signal latency stall time: 16
Reenqueueing errored packet 273578 at time 9158
Additional hops: 1554
Set signal latency stall time: 20
Reenqueueing errored packet 291303 at time 9269
Additional hops: 1559
Set signal latency stall time: 10
Reenqueueing errored packet 353690 at time 9287
Additional hops: 1565
Set signal latency stall time: 12
Reenqueueing errored packet 265685 at time 9442
Additional hops: 1568
Set signal latency stall time: 6
Reenqueueing errored packet 338770 at time 9461
Additional hops: 1574
Set signal latency stall time: 12
Additional hops: 1582
Set signal latency stall time: 16
Reenqueueing errored packet 360006 at time 9476
Reenqueueing errored packet 283643 at time 9488
Additional hops: 1590
Set signal latency stall time: 16
Reenqueueing errored packet 265717 at time 9516
Additional hops: 1594
Set signal latency stall time: 8
Reenqueueing errored packet 322719 at time 9554
Additional hops: 1599
Set signal latency stall time: 10
Additional hops: 1608
Set signal latency stall time: 18
Reenqueueing errored packet 347475 at time 9623
Reenqueueing errored packet 321578 at time 9639
Additional hops: 1618
Set signal latency stall time: 20
Reenqueueing errored packet 288787 at time 9676
Additional hops: 1631
Set signal latency stall time: 26
Reenqueueing errored packet 258614 at time 9706
Additional hops: 1638
Set signal latency stall time: 14
Reenqueueing errored packet 344483 at time 9724
Additional hops: 1648
Set signal latency stall time: 20
Additional hops: 1654
Set signal latency stall time: 12
Additional hops: 1660
Set signal latency stall time: 12
Reenqueueing errored packet 297322 at time 9837
Reenqueueing errored packet 334664 at time 9845
Additional hops: 1665
Set signal latency stall time: 10
Reenqueueing errored packet 350187 at time 9880
Additional hops: 1670
Set signal latency stall time: 10
Reenqueueing errored packet 335347 at time 9944
Class 0:
Packet latency average = 643.533
	minimum = 5
	maximum = 4445
Network latency average = 643.149
	minimum = 5
	maximum = 3425
Slowest packet = 37364
Flit latency average = 643.149
	minimum = 5
	maximum = 3425
Slowest flit = 247504
Fragmentation average = 0
	minimum = 0
	maximum = 0
Injected packet rate average = 0.594173
	minimum = 0.5586 (at node 25)
	maximum = 0.6096 (at node 44)
Accepted packet rate average = 0.511919
	minimum = 0.4926 (at node 21)
	maximum = 0.5294 (at node 14)
Injected flit rate average = 0.594173
	minimum = 0.5586 (at node 25)
	maximum = 0.6096 (at node 44)
Accepted flit rate average= 0.511919
	minimum = 0.4926 (at node 21)
	maximum = 0.5294 (at node 14)
Injected packet length average = 1
Accepted packet length average = 1
Total in-flight flits = 52656 (0 measured)
latency change    = 1
throughput change = 1
Average latency for class 0 exceeded 500 cycles. Aborting simulation.
Too many sample periods needed to converge
Simulation unstable, ending ...
Total run time 58.4593
