BEGIN Configuration File: examples/ecc_mesh88_config_1_0.700_link_5
// $Id$

// Copyright (c) 2007-2015, Trustees of The Leland Stanford Junior University
// All rights reserved.
//
// Redistribution and use in source and binary forms, with or without
// modification, are permitted provided that the following conditions are met:
//
// Redistributions of source code must retain the above copyright notice, this
// list of conditions and the following disclaimer.
// Redistributions in binary form must reproduce the above copyright notice,
// this list of conditions and the following disclaimer in the documentation
// and/or other materials provided with the distribution.
//
// THIS SOFTWARE IS PROVIDED BY THE COPYRIGHT HOLDERS AND CONTRIBUTORS "AS IS"
// AND ANY EXPRESS OR IMPLIED WARRANTIES, INCLUDING, BUT NOT LIMITED TO, THE
// IMPLIED WARRANTIES OF MERCHANTABILITY AND FITNESS FOR A PARTICULAR PURPOSE
// ARE DISCLAIMED. IN NO EVENT SHALL THE COPYRIGHT OWNER OR CONTRIBUTORS BE
// LIABLE FOR ANY DIRECT, INDIRECT, INCIDENTAL, SPECIAL, EXEMPLARY, OR
// CONSEQUENTIAL DAMAGES (INCLUDING, BUT NOT LIMITED TO, PROCUREMENT OF
// SUBSTITUTE GOODS OR SERVICES; LOSS OF USE, DATA, OR PROFITS; OR BUSINESS
// INTERRUPTION) HOWEVER CAUSED AND ON ANY THEORY OF LIABILITY, WHETHER IN
// CONTRACT, STRICT LIABILITY, OR TORT (INCLUDING NEGLIGENCE OR OTHERWISE)
// ARISING IN ANY WAY OUT OF THE USE OF THIS SOFTWARE, EVEN IF ADVISED OF THE
// POSSIBILITY OF SUCH DAMAGE.

// Dragonfly
//




vc_buf_size = 256;


wait_for_tail_credit = 0;

//
// Router architecture
//
vc_allocator = separable_input_first; 
sw_allocator = separable_input_first;
alloc_iters  = 1;

credit_delay   = 2;
routing_delay  = 0;
vc_alloc_delay = 1;
sw_alloc_delay = 1;
st_final_delay = 1;

input_speedup     = 1;
output_speedup    = 1;
internal_speedup  = 2.0;


warmup_periods = 3;
sim_count          = 1;

sample_period  = 10000;  


routing_function = dor;
num_vcs     = 2;

priority = none;
traffic       = uniform; 

injection_rate = 0.7;
packet_size = 1;
injection_rate_uses_flits = 1;

topology = mesh;

k  = 8;
n  = 2;

fer = 5;
ecc = link;

watch_out=-;
//watch_file = watch.txt;

ecc = link;

stats_out = examples/ecc_mesh88_config_1_0.700_link_5.m;

END Configuration File: examples/ecc_mesh88_config_1_0.700_link_5
5
Received nack credit for flit 3928
Requeued flit 3928
1
Received nack credit for flit 62797
Requeued flit 62797
5
Received nack credit for flit 56235
Requeued flit 56235
1
Received nack credit for flit 106987
Requeued flit 106987
6
Received nack credit for flit 94991
Requeued flit 94991
2
Received nack credit for flit 161916
Requeued flit 161916
1
Received nack credit for flit 163980
Requeued flit 163980
3
Received nack credit for flit 133565
Requeued flit 133565
3
Received nack credit for flit 152581
Requeued flit 152581
6
Received nack credit for flit 168281
Requeued flit 168281
1
Received nack credit for flit 191454
Requeued flit 191454
4
Received nack credit for flit 172366
Requeued flit 172366
4
Received nack credit for flit 171797
Requeued flit 171797
1
Received nack credit for flit 224330
Requeued flit 224330
1
Received nack credit for flit 205620
Requeued flit 205620
1
Received nack credit for flit 249882
Requeued flit 249882
2
Received nack credit for flit 196001
Requeued flit 196001
2
Received nack credit for flit 327191
Requeued flit 327191
1
Received nack credit for flit 298761
Requeued flit 298761
Class 0:
Packet latency average = 1075.76
	minimum = 5
	maximum = 5262
Network latency average = 1046.31
	minimum = 5
	maximum = 5166
Slowest packet = 200751
Flit latency average = 1046.31
	minimum = 5
	maximum = 5166
Slowest flit = 212264
Fragmentation average = 0
	minimum = 0
	maximum = 0
Injected packet rate average = 0.612187
	minimum = 0.4872 (at node 17)
	maximum = 0.7035 (at node 51)
Accepted packet rate average = 0.509883
	minimum = 0.4946 (at node 36)
	maximum = 0.5281 (at node 15)
Injected flit rate average = 0.612187
	minimum = 0.4872 (at node 17)
	maximum = 0.7035 (at node 51)
Accepted flit rate average= 0.509883
	minimum = 0.4946 (at node 36)
	maximum = 0.5281 (at node 15)
Injected packet length average = 1
Accepted packet length average = 1
Total in-flight flits = 65498 (0 measured)
latency change    = 1
throughput change = 1
Average latency for class 0 exceeded 500 cycles. Aborting simulation.
Too many sample periods needed to converge
Simulation unstable, ending ...
Total run time 58.6324
