BEGIN Configuration File: examples/ecc_mesh88_config_1_0.850_packet_4
// $Id$

// Copyright (c) 2007-2015, Trustees of The Leland Stanford Junior University
// All rights reserved.
//
// Redistribution and use in source and binary forms, with or without
// modification, are permitted provided that the following conditions are met:
//
// Redistributions of source code must retain the above copyright notice, this
// list of conditions and the following disclaimer.
// Redistributions in binary form must reproduce the above copyright notice,
// this list of conditions and the following disclaimer in the documentation
// and/or other materials provided with the distribution.
//
// THIS SOFTWARE IS PROVIDED BY THE COPYRIGHT HOLDERS AND CONTRIBUTORS "AS IS"
// AND ANY EXPRESS OR IMPLIED WARRANTIES, INCLUDING, BUT NOT LIMITED TO, THE
// IMPLIED WARRANTIES OF MERCHANTABILITY AND FITNESS FOR A PARTICULAR PURPOSE
// ARE DISCLAIMED. IN NO EVENT SHALL THE COPYRIGHT OWNER OR CONTRIBUTORS BE
// LIABLE FOR ANY DIRECT, INDIRECT, INCIDENTAL, SPECIAL, EXEMPLARY, OR
// CONSEQUENTIAL DAMAGES (INCLUDING, BUT NOT LIMITED TO, PROCUREMENT OF
// SUBSTITUTE GOODS OR SERVICES; LOSS OF USE, DATA, OR PROFITS; OR BUSINESS
// INTERRUPTION) HOWEVER CAUSED AND ON ANY THEORY OF LIABILITY, WHETHER IN
// CONTRACT, STRICT LIABILITY, OR TORT (INCLUDING NEGLIGENCE OR OTHERWISE)
// ARISING IN ANY WAY OUT OF THE USE OF THIS SOFTWARE, EVEN IF ADVISED OF THE
// POSSIBILITY OF SUCH DAMAGE.

// Dragonfly
//




vc_buf_size = 256;


wait_for_tail_credit = 0;

//
// Router architecture
//
vc_allocator = separable_input_first; 
sw_allocator = separable_input_first;
alloc_iters  = 1;

credit_delay   = 2;
routing_delay  = 0;
vc_alloc_delay = 1;
sw_alloc_delay = 1;
st_final_delay = 1;

input_speedup     = 1;
output_speedup    = 1;
internal_speedup  = 2.0;


warmup_periods = 3;
sim_count          = 1;

sample_period  = 10000;  


routing_function = dor;
num_vcs     = 2;

priority = none;
traffic       = uniform; 

injection_rate = 0.85;
packet_size = 1;
injection_rate_uses_flits = 1;

topology = mesh;

k  = 8;
n  = 2;

fer = 4;
ecc = link;

watch_out=-;
//watch_file = watch.txt;

ecc = packet;

stats_out = examples/ecc_mesh88_config_1_0.850_packet_4.m;

END Configuration File: examples/ecc_mesh88_config_1_0.850_packet_4
Additional hops: 9
Set signal latency stall time: 18
Reenqueueing errored packet 248 at time 65
Additional hops: 13
Set signal latency stall time: 8
Reenqueueing errored packet 3005 at time 82
Additional hops: 18
Set signal latency stall time: 10
Reenqueueing errored packet 3276 at time 106
Additional hops: 21
Set signal latency stall time: 6
Reenqueueing errored packet 6837 at time 159
Additional hops: 26
Set signal latency stall time: 10
Additional hops: 34
Set signal latency stall time: 16
Reenqueueing errored packet 7042 at time 183
Reenqueueing errored packet 4489 at time 194
Additional hops: 40
Set signal latency stall time: 12
Reenqueueing errored packet 5396 at time 210
Additional hops: 47
Set signal latency stall time: 14
Reenqueueing errored packet 9281 at time 280
Additional hops: 54
Set signal latency stall time: 14
Reenqueueing errored packet 8901 at time 306
Additional hops: 57
Set signal latency stall time: 6
Reenqueueing errored packet 16298 at time 318
Additional hops: 64
Set signal latency stall time: 14
Additional hops: 67
Set signal latency stall time: 6
Reenqueueing errored packet 12946 at time 364
Reenqueueing errored packet 11430 at time 365
Additional hops: 69
Set signal latency stall time: 4
Reenqueueing errored packet 23540 at time 444
Additional hops: 78
Set signal latency stall time: 18
Additional hops: 85
Set signal latency stall time: 14
Reenqueueing errored packet 16635 at time 469
Reenqueueing errored packet 7948 at time 469
Additional hops: 88
Set signal latency stall time: 6
Reenqueueing errored packet 26681 at time 507
Additional hops: 90
Set signal latency stall time: 4
Reenqueueing errored packet 28756 at time 540
Additional hops: 95
Set signal latency stall time: 10
Reenqueueing errored packet 23830 at time 660
Additional hops: 100
Set signal latency stall time: 10
Additional hops: 107
Set signal latency stall time: 14
Reenqueueing errored packet 33246 at time 720
Reenqueueing errored packet 25091 at time 733
Additional hops: 111
Set signal latency stall time: 8
Additional hops: 118
Set signal latency stall time: 14
Reenqueueing errored packet 33191 at time 881
Additional hops: 124
Set signal latency stall time: 12
Reenqueueing errored packet 31443 at time 891
Reenqueueing errored packet 21602 at time 897
Additional hops: 133
Set signal latency stall time: 18
Reenqueueing errored packet 17868 at time 977
Additional hops: 139
Set signal latency stall time: 12
Reenqueueing errored packet 49177 at time 1032
Additional hops: 145
Set signal latency stall time: 12
Additional hops: 155
Set signal latency stall time: 20
Reenqueueing errored packet 44980 at time 1067
Reenqueueing errored packet 27342 at time 1082
Additional hops: 162
Set signal latency stall time: 14
Reenqueueing errored packet 26091 at time 1120
Additional hops: 173
Set signal latency stall time: 22
Additional hops: 185
Set signal latency stall time: 24
Reenqueueing errored packet 32689 at time 1176
Reenqueueing errored packet 25341 at time 1181
Additional hops: 189
Set signal latency stall time: 8
Additional hops: 198
Set signal latency stall time: 18
Reenqueueing errored packet 63225 at time 1200
Reenqueueing errored packet 27634 at time 1213
Additional hops: 204
Set signal latency stall time: 12
Reenqueueing errored packet 52033 at time 1294
Additional hops: 213
Set signal latency stall time: 18
Reenqueueing errored packet 26796 at time 1348
Additional hops: 223
Set signal latency stall time: 20
Reenqueueing errored packet 25423 at time 1417
Additional hops: 228
Set signal latency stall time: 10
Additional hops: 238
Set signal latency stall time: 20
Reenqueueing errored packet 65319 at time 1545
Reenqueueing errored packet 30373 at time 1562
Additional hops: 240
Set signal latency stall time: 4
Reenqueueing errored packet 85767 at time 1593
Additional hops: 245
Set signal latency stall time: 10
Reenqueueing errored packet 82470 at time 1650
Additional hops: 253
Set signal latency stall time: 16
Reenqueueing errored packet 39339 at time 1686
Additional hops: 261
Set signal latency stall time: 16
Reenqueueing errored packet 39418 at time 1733
Additional hops: 265
Set signal latency stall time: 8
Reenqueueing errored packet 88079 at time 1758
Additional hops: 268
Set signal latency stall time: 6
Reenqueueing errored packet 103711 at time 1930
Additional hops: 272
Set signal latency stall time: 8
Reenqueueing errored packet 79299 at time 2021
Additional hops: 277
Set signal latency stall time: 10
Additional hops: 283
Set signal latency stall time: 12
Reenqueueing errored packet 99710 at time 2063
Reenqueueing errored packet 80903 at time 2069
Additional hops: 289
Set signal latency stall time: 12
Reenqueueing errored packet 81154 at time 2099
Additional hops: 298
Set signal latency stall time: 18
Reenqueueing errored packet 61830 at time 2122
Additional hops: 303
Set signal latency stall time: 10
Reenqueueing errored packet 104862 at time 2133
Additional hops: 310
Set signal latency stall time: 14
Reenqueueing errored packet 84564 at time 2149
Additional hops: 314
Set signal latency stall time: 8
Reenqueueing errored packet 109751 at time 2159
Additional hops: 318
Set signal latency stall time: 8
Additional hops: 323
Set signal latency stall time: 10
Reenqueueing errored packet 107013 at time 2178
Reenqueueing errored packet 105224 at time 2187
Additional hops: 329
Set signal latency stall time: 12
Additional hops: 338
Set signal latency stall time: 18
Reenqueueing errored packet 87675 at time 2232
Reenqueueing errored packet 69741 at time 2247
Additional hops: 351
Set signal latency stall time: 26
Reenqueueing errored packet 37212 at time 2341
Additional hops: 356
Set signal latency stall time: 10
Reenqueueing errored packet 61098 at time 2404
Additional hops: 362
Set signal latency stall time: 12
Reenqueueing errored packet 65916 at time 2419
Additional hops: 372
Set signal latency stall time: 20
Reenqueueing errored packet 73422 at time 2442
Additional hops: 378
Set signal latency stall time: 12
Reenqueueing errored packet 90860 at time 2502
Additional hops: 385
Set signal latency stall time: 14
Reenqueueing errored packet 87510 at time 2523
Additional hops: 395
Set signal latency stall time: 20
Additional hops: 403
Set signal latency stall time: 16
Reenqueueing errored packet 60870 at time 2655
Reenqueueing errored packet 59927 at time 2661
Additional hops: 408
Set signal latency stall time: 10
Reenqueueing errored packet 91598 at time 2920
Additional hops: 414
Set signal latency stall time: 12
Reenqueueing errored packet 97201 at time 2988
Additional hops: 429
Set signal latency stall time: 30
Reenqueueing errored packet 52674 at time 3072
Additional hops: 439
Set signal latency stall time: 20
Additional hops: 446
Set signal latency stall time: 14
Reenqueueing errored packet 98148 at time 3119
Additional hops: 456
Set signal latency stall time: 20
Reenqueueing errored packet 53953 at time 3227
Additional hops: 461
Set signal latency stall time: 10
Reenqueueing errored packet 146157 at time 3250
Additional hops: 469
Set signal latency stall time: 16
Reenqueueing errored packet 92782 at time 3295
Additional hops: 471
Set signal latency stall time: 4
Reenqueueing errored packet 175796 at time 3374
Additional hops: 477
Set signal latency stall time: 12
Reenqueueing errored packet 104309 at time 3390
Additional hops: 485
Set signal latency stall time: 16
Additional hops: 490
Set signal latency stall time: 10
Reenqueueing errored packet 154620 at time 3444
Reenqueueing errored packet 168707 at time 3450
Additional hops: 500
Set signal latency stall time: 20
Additional hops: 508
Set signal latency stall time: 16
Reenqueueing errored packet 96379 at time 3480
Reenqueueing errored packet 113650 at time 3484
Additional hops: 519
Set signal latency stall time: 22
Reenqueueing errored packet 73169 at time 3513
Additional hops: 523
Set signal latency stall time: 8
Reenqueueing errored packet 102120 at time 3538
Additional hops: 531
Set signal latency stall time: 16
Reenqueueing errored packet 146226 at time 3651
Additional hops: 537
Set signal latency stall time: 12
Additional hops: 540
Set signal latency stall time: 6
Reenqueueing errored packet 189196 at time 3672
Reenqueueing errored packet 154158 at time 3672
Additional hops: 547
Set signal latency stall time: 14
Reenqueueing errored packet 155457 at time 3699
Additional hops: 554
Set signal latency stall time: 14
Additional hops: 563
Set signal latency stall time: 18
Additional hops: 570
Set signal latency stall time: 14
Reenqueueing errored packet 149132 at time 3895
Reenqueueing errored packet 159361 at time 3905
Additional hops: 574
Set signal latency stall time: 8
Reenqueueing errored packet 161898 at time 3987
Additional hops: 585
Set signal latency stall time: 22
Additional hops: 594
Set signal latency stall time: 18
Additional hops: 601
Set signal latency stall time: 14
Additional hops: 611
Set signal latency stall time: 20
Reenqueueing errored packet 84128 at time 4089
Reenqueueing errored packet 151188 at time 4091
Additional hops: 618
Set signal latency stall time: 14
Additional hops: 623
Set signal latency stall time: 10
Reenqueueing errored packet 172060 at time 4139
Reenqueueing errored packet 169762 at time 4141
Additional hops: 628
Set signal latency stall time: 10
Reenqueueing errored packet 199078 at time 4207
Additional hops: 635
Set signal latency stall time: 14
Reenqueueing errored packet 92177 at time 4273
Additional hops: 645
Set signal latency stall time: 20
Additional hops: 656
Set signal latency stall time: 22
Additional hops: 664
Set signal latency stall time: 16
Reenqueueing errored packet 187471 at time 4402
Reenqueueing errored packet 168940 at time 4411
Additional hops: 671
Set signal latency stall time: 14
Reenqueueing errored packet 144403 at time 4428
Additional hops: 678
Set signal latency stall time: 14
Reenqueueing errored packet 171698 at time 4465
Additional hops: 682
Set signal latency stall time: 8
Reenqueueing errored packet 211267 at time 4595
Additional hops: 689
Set signal latency stall time: 14
Additional hops: 697
Set signal latency stall time: 16
Reenqueueing errored packet 199418 at time 4637
Additional hops: 701
Set signal latency stall time: 8
Reenqueueing errored packet 192726 at time 4642
Reenqueueing errored packet 196652 at time 4646
Additional hops: 704
Set signal latency stall time: 6
Additional hops: 714
Set signal latency stall time: 20
Additional hops: 725
Set signal latency stall time: 22
Reenqueueing errored packet 174215 at time 4774
Additional hops: 731
Set signal latency stall time: 12
Reenqueueing errored packet 202179 at time 4835
Additional hops: 741
Set signal latency stall time: 20
Additional hops: 745
Set signal latency stall time: 8
Reenqueueing errored packet 205499 at time 4860
Additional hops: 752
Set signal latency stall time: 14
Additional hops: 758
Set signal latency stall time: 12
Reenqueueing errored packet 201413 at time 4886
Additional hops: 764
Set signal latency stall time: 12
Reenqueueing errored packet 225407 at time 4976
Additional hops: 773
Set signal latency stall time: 18
Reenqueueing errored packet 190647 at time 5007
Additional hops: 782
Set signal latency stall time: 18
Additional hops: 785
Set signal latency stall time: 6
Reenqueueing errored packet 183854 at time 5034
Additional hops: 794
Set signal latency stall time: 18
Reenqueueing errored packet 104599 at time 5087
Additional hops: 801
Set signal latency stall time: 14
Additional hops: 810
Set signal latency stall time: 18
Reenqueueing errored packet 215907 at time 5163
Additional hops: 815
Set signal latency stall time: 10
Reenqueueing errored packet 125221 at time 5207
Additional hops: 822
Set signal latency stall time: 14
Reenqueueing errored packet 210487 at time 5234
Additional hops: 830
Set signal latency stall time: 16
Reenqueueing errored packet 218320 at time 5285
Additional hops: 836
Set signal latency stall time: 12
Additional hops: 848
Set signal latency stall time: 24
Additional hops: 853
Set signal latency stall time: 10
Reenqueueing errored packet 238098 at time 5452
Additional hops: 856
Set signal latency stall time: 6
Additional hops: 865
Set signal latency stall time: 18
Additional hops: 874
Set signal latency stall time: 18
Additional hops: 886
Set signal latency stall time: 24
Additional hops: 892
Set signal latency stall time: 12
Additional hops: 898
Set signal latency stall time: 12
Additional hops: 905
Set signal latency stall time: 14
Reenqueueing errored packet 236647 at time 5713
Additional hops: 915
Set signal latency stall time: 20
Additional hops: 924
Set signal latency stall time: 18
Reenqueueing errored packet 237192 at time 5845
Additional hops: 926
Set signal latency stall time: 4
Reenqueueing errored packet 245383 at time 5896
Additional hops: 929
Set signal latency stall time: 6
Reenqueueing errored packet 248737 at time 5933
Additional hops: 934
Set signal latency stall time: 10
Reenqueueing errored packet 142472 at time 5950
Additional hops: 940
Set signal latency stall time: 12
Reenqueueing errored packet 244273 at time 6053
Additional hops: 942
Set signal latency stall time: 4
Reenqueueing errored packet 173168 at time 6120
Additional hops: 955
Set signal latency stall time: 26
Additional hops: 960
Set signal latency stall time: 10
Additional hops: 969
Set signal latency stall time: 18
Reenqueueing errored packet 238081 at time 6164
Additional hops: 976
Set signal latency stall time: 14
Additional hops: 982
Set signal latency stall time: 12
Additional hops: 989
Set signal latency stall time: 14
Reenqueueing errored packet 205585 at time 6204
Reenqueueing errored packet 190295 at time 6211
Additional hops: 998
Set signal latency stall time: 18
Additional hops: 1001
Set signal latency stall time: 6
Additional hops: 1011
Set signal latency stall time: 20
Additional hops: 1018
Set signal latency stall time: 14
Additional hops: 1025
Set signal latency stall time: 14
Additional hops: 1033
Set signal latency stall time: 16
Additional hops: 1039
Set signal latency stall time: 12
Reenqueueing errored packet 256232 at time 6479
Additional hops: 1047
Set signal latency stall time: 16
Reenqueueing errored packet 195497 at time 6489
Reenqueueing errored packet 250261 at time 6505
Additional hops: 1055
Set signal latency stall time: 16
Additional hops: 1064
Set signal latency stall time: 18
Reenqueueing errored packet 127181 at time 6539
Reenqueueing errored packet 244440 at time 6547
Additional hops: 1070
Set signal latency stall time: 12
Additional hops: 1078
Set signal latency stall time: 16
Additional hops: 1084
Set signal latency stall time: 12
Reenqueueing errored packet 253027 at time 6626
Reenqueueing errored packet 254294 at time 6636
Additional hops: 1093
Set signal latency stall time: 18
Additional hops: 1098
Set signal latency stall time: 10
Additional hops: 1107
Set signal latency stall time: 18
Reenqueueing errored packet 276495 at time 6665
Reenqueueing errored packet 254650 at time 6678
Additional hops: 1115
Set signal latency stall time: 16
Additional hops: 1117
Set signal latency stall time: 4
Reenqueueing errored packet 245959 at time 6969
Additional hops: 1125
Set signal latency stall time: 16
Additional hops: 1129
Set signal latency stall time: 8
Additional hops: 1138
Set signal latency stall time: 18
Reenqueueing errored packet 285770 at time 7096
Reenqueueing errored packet 253983 at time 7106
Additional hops: 1147
Set signal latency stall time: 18
Reenqueueing errored packet 257514 at time 7161
Additional hops: 1154
Set signal latency stall time: 14
Additional hops: 1162
Set signal latency stall time: 16
Additional hops: 1167
Set signal latency stall time: 10
Reenqueueing errored packet 266539 at time 7343
Additional hops: 1174
Set signal latency stall time: 14
Additional hops: 1182
Set signal latency stall time: 16
Reenqueueing errored packet 148240 at time 7460
Additional hops: 1191
Set signal latency stall time: 18
Reenqueueing errored packet 267710 at time 7560
Additional hops: 1202
Set signal latency stall time: 22
Additional hops: 1205
Set signal latency stall time: 6
Reenqueueing errored packet 301546 at time 7647
Additional hops: 1210
Set signal latency stall time: 10
Additional hops: 1215
Set signal latency stall time: 10
Reenqueueing errored packet 289168 at time 7819
Additional hops: 1220
Set signal latency stall time: 10
Additional hops: 1229
Set signal latency stall time: 18
Reenqueueing errored packet 293498 at time 7848
Additional hops: 1234
Set signal latency stall time: 10
Reenqueueing errored packet 305800 at time 7878
Additional hops: 1241
Set signal latency stall time: 14
Additional hops: 1247
Set signal latency stall time: 12
Reenqueueing errored packet 286576 at time 7940
Additional hops: 1251
Set signal latency stall time: 8
Reenqueueing errored packet 293446 at time 7965
Additional hops: 1258
Set signal latency stall time: 14
Additional hops: 1266
Set signal latency stall time: 16
Reenqueueing errored packet 244863 at time 8028
Additional hops: 1273
Set signal latency stall time: 14
Additional hops: 1280
Set signal latency stall time: 14
Additional hops: 1286
Set signal latency stall time: 12
Reenqueueing errored packet 236798 at time 8129
Additional hops: 1295
Set signal latency stall time: 18
Reenqueueing errored packet 309249 at time 8237
Additional hops: 1304
Set signal latency stall time: 18
Additional hops: 1311
Set signal latency stall time: 14
Reenqueueing errored packet 298191 at time 8280
Additional hops: 1316
Set signal latency stall time: 10
Reenqueueing errored packet 326602 at time 8305
Additional hops: 1320
Set signal latency stall time: 8
Reenqueueing errored packet 177991 at time 8359
Additional hops: 1327
Set signal latency stall time: 14
Reenqueueing errored packet 322017 at time 8399
Additional hops: 1330
Set signal latency stall time: 6
Reenqueueing errored packet 323334 at time 8428
Additional hops: 1338
Set signal latency stall time: 16
Additional hops: 1346
Set signal latency stall time: 16
Additional hops: 1353
Set signal latency stall time: 14
Additional hops: 1359
Set signal latency stall time: 12
Reenqueueing errored packet 303227 at time 8459
Reenqueueing errored packet 311511 at time 8460
Reenqueueing errored packet 310610 at time 8471
Additional hops: 1365
Set signal latency stall time: 12
Reenqueueing errored packet 309108 at time 8536
Additional hops: 1373
Set signal latency stall time: 16
Reenqueueing errored packet 245180 at time 8597
Additional hops: 1383
Set signal latency stall time: 20
Reenqueueing errored packet 300863 at time 8646
Additional hops: 1387
Set signal latency stall time: 8
Additional hops: 1395
Set signal latency stall time: 16
Reenqueueing errored packet 309016 at time 8695
Additional hops: 1397
Set signal latency stall time: 4
Additional hops: 1401
Set signal latency stall time: 8
Reenqueueing errored packet 324267 at time 8763
Additional hops: 1407
Set signal latency stall time: 12
Additional hops: 1417
Set signal latency stall time: 20
Additional hops: 1421
Set signal latency stall time: 8
Additional hops: 1426
Set signal latency stall time: 10
Additional hops: 1431
Set signal latency stall time: 10
Additional hops: 1439
Set signal latency stall time: 16
Reenqueueing errored packet 342164 at time 8930
Additional hops: 1443
Set signal latency stall time: 8
Additional hops: 1453
Set signal latency stall time: 20
Reenqueueing errored packet 167734 at time 8964
Additional hops: 1460
Set signal latency stall time: 14
Reenqueueing errored packet 274085 at time 8994
Additional hops: 1463
Set signal latency stall time: 6
Additional hops: 1469
Set signal latency stall time: 12
Reenqueueing errored packet 344886 at time 9122
Additional hops: 1479
Set signal latency stall time: 20
Additional hops: 1481
Set signal latency stall time: 4
Reenqueueing errored packet 338080 at time 9136
Reenqueueing errored packet 337465 at time 9143
Additional hops: 1490
Set signal latency stall time: 18
Reenqueueing errored packet 333237 at time 9267
Additional hops: 1500
Set signal latency stall time: 20
Additional hops: 1508
Set signal latency stall time: 16
Reenqueueing errored packet 334301 at time 9288
Additional hops: 1513
Set signal latency stall time: 10
Additional hops: 1521
Set signal latency stall time: 16
Reenqueueing errored packet 347177 at time 9429
Additional hops: 1529
Set signal latency stall time: 16
Additional hops: 1535
Set signal latency stall time: 12
Reenqueueing errored packet 345646 at time 9443
Reenqueueing errored packet 343125 at time 9454
Additional hops: 1540
Set signal latency stall time: 10
Additional hops: 1552
Set signal latency stall time: 24
Reenqueueing errored packet 339470 at time 9544
Additional hops: 1556
Set signal latency stall time: 8
Reenqueueing errored packet 360034 at time 9658
Additional hops: 1560
Set signal latency stall time: 8
Additional hops: 1568
Set signal latency stall time: 16
Reenqueueing errored packet 319462 at time 9789
Additional hops: 1576
Set signal latency stall time: 16
Reenqueueing errored packet 182742 at time 9850
Additional hops: 1583
Set signal latency stall time: 14
Additional hops: 1589
Set signal latency stall time: 12
Additional hops: 1594
Set signal latency stall time: 10
Reenqueueing errored packet 362740 at time 9985
Class 0:
Packet latency average = 1570.93
	minimum = 5
	maximum = 8770
Network latency average = 1384.31
	minimum = 5
	maximum = 6678
Slowest packet = 100556
Flit latency average = 1384.31
	minimum = 5
	maximum = 6678
Slowest flit = 174476
Fragmentation average = 0
	minimum = 0
	maximum = 0
Injected packet rate average = 0.616547
	minimum = 0.4307 (at node 46)
	maximum = 0.8587 (at node 60)
Accepted packet rate average = 0.502359
	minimum = 0.4807 (at node 21)
	maximum = 0.5194 (at node 14)
Injected flit rate average = 0.616547
	minimum = 0.4307 (at node 46)
	maximum = 0.8587 (at node 60)
Accepted flit rate average= 0.502359
	minimum = 0.4807 (at node 21)
	maximum = 0.5194 (at node 14)
Injected packet length average = 1
Accepted packet length average = 1
Total in-flight flits = 73165 (0 measured)
latency change    = 1
throughput change = 1
Average latency for class 0 exceeded 500 cycles. Aborting simulation.
Too many sample periods needed to converge
Simulation unstable, ending ...
Total run time 57.0841
