BEGIN Configuration File: examples/ecc_mesh88_config_1_0.300_link_5
// $Id$

// Copyright (c) 2007-2015, Trustees of The Leland Stanford Junior University
// All rights reserved.
//
// Redistribution and use in source and binary forms, with or without
// modification, are permitted provided that the following conditions are met:
//
// Redistributions of source code must retain the above copyright notice, this
// list of conditions and the following disclaimer.
// Redistributions in binary form must reproduce the above copyright notice,
// this list of conditions and the following disclaimer in the documentation
// and/or other materials provided with the distribution.
//
// THIS SOFTWARE IS PROVIDED BY THE COPYRIGHT HOLDERS AND CONTRIBUTORS "AS IS"
// AND ANY EXPRESS OR IMPLIED WARRANTIES, INCLUDING, BUT NOT LIMITED TO, THE
// IMPLIED WARRANTIES OF MERCHANTABILITY AND FITNESS FOR A PARTICULAR PURPOSE
// ARE DISCLAIMED. IN NO EVENT SHALL THE COPYRIGHT OWNER OR CONTRIBUTORS BE
// LIABLE FOR ANY DIRECT, INDIRECT, INCIDENTAL, SPECIAL, EXEMPLARY, OR
// CONSEQUENTIAL DAMAGES (INCLUDING, BUT NOT LIMITED TO, PROCUREMENT OF
// SUBSTITUTE GOODS OR SERVICES; LOSS OF USE, DATA, OR PROFITS; OR BUSINESS
// INTERRUPTION) HOWEVER CAUSED AND ON ANY THEORY OF LIABILITY, WHETHER IN
// CONTRACT, STRICT LIABILITY, OR TORT (INCLUDING NEGLIGENCE OR OTHERWISE)
// ARISING IN ANY WAY OUT OF THE USE OF THIS SOFTWARE, EVEN IF ADVISED OF THE
// POSSIBILITY OF SUCH DAMAGE.

// Dragonfly
//




vc_buf_size = 256;


wait_for_tail_credit = 0;

//
// Router architecture
//
vc_allocator = separable_input_first; 
sw_allocator = separable_input_first;
alloc_iters  = 1;

credit_delay   = 2;
routing_delay  = 0;
vc_alloc_delay = 1;
sw_alloc_delay = 1;
st_final_delay = 1;

input_speedup     = 1;
output_speedup    = 1;
internal_speedup  = 2.0;


warmup_periods = 3;
sim_count          = 1;

sample_period  = 10000;  


routing_function = dor;
num_vcs     = 2;

priority = none;
traffic       = uniform; 

injection_rate = 0.3;
packet_size = 1;
injection_rate_uses_flits = 1;

topology = mesh;

k  = 8;
n  = 2;

fer = 5;
ecc = link;

watch_out=-;
//watch_file = watch.txt;

ecc = link;

stats_out = examples/ecc_mesh88_config_1_0.300_link_5.m;

END Configuration File: examples/ecc_mesh88_config_1_0.300_link_5
1
Received nack credit for flit 4796
Requeued flit 4796
3
Received nack credit for flit 5283
Requeued flit 5283
7
Received nack credit for flit 27474
Requeued flit 27474
4
Received nack credit for flit 58969
Requeued flit 58969
4
Received nack credit for flit 91996
Requeued flit 91996
5
Received nack credit for flit 112531
Requeued flit 112531
5
Received nack credit for flit 121986
Requeued flit 121986
6
Received nack credit for flit 122957
Requeued flit 122957
2
Received nack credit for flit 127263
Requeued flit 127263
2
Received nack credit for flit 130851
Requeued flit 130851
5
Received nack credit for flit 133835
Requeued flit 133835
10
Received nack credit for flit 153421
Requeued flit 153421
5
Received nack credit for flit 155411
Requeued flit 155411
3
Received nack credit for flit 156136
Requeued flit 156136
4
Received nack credit for flit 184199
Requeued flit 184199
1
Received nack credit for flit 185819
Requeued flit 185819
Class 0:
Packet latency average = 22.1411
	minimum = 5
	maximum = 59
Network latency average = 22.1411
	minimum = 5
	maximum = 59
Slowest packet = 138936
Flit latency average = 22.1411
	minimum = 5
	maximum = 59
Slowest flit = 138936
Fragmentation average = 0
	minimum = 0
	maximum = 0
Injected packet rate average = 0.299989
	minimum = 0.2883 (at node 30)
	maximum = 0.3102 (at node 26)
Accepted packet rate average = 0.299352
	minimum = 0.2887 (at node 33)
	maximum = 0.3127 (at node 53)
Injected flit rate average = 0.299989
	minimum = 0.2883 (at node 30)
	maximum = 0.3102 (at node 26)
Accepted flit rate average= 0.299352
	minimum = 0.2887 (at node 33)
	maximum = 0.3127 (at node 53)
Injected packet length average = 1
Accepted packet length average = 1
Total in-flight flits = 408 (0 measured)
latency change    = 1
throughput change = 1
1
Received nack credit for flit 224862
Requeued flit 224862
2
Received nack credit for flit 225719
Requeued flit 225719
3
Received nack credit for flit 251922
Requeued flit 251922
4
Received nack credit for flit 256951
Requeued flit 256951
3
Received nack credit for flit 272304
Requeued flit 272304
4
Received nack credit for flit 321600
Requeued flit 321600
7
Received nack credit for flit 344679
Requeued flit 344679
4
Received nack credit for flit 346330
Requeued flit 346330
3
Received nack credit for flit 354396
Requeued flit 354396
1
Received nack credit for flit 357281
Requeued flit 357281
3
Received nack credit for flit 357742
Requeued flit 357742
Class 0:
Packet latency average = 22.1286
	minimum = 5
	maximum = 59
Network latency average = 22.1286
	minimum = 5
	maximum = 59
Slowest packet = 138936
Flit latency average = 22.1286
	minimum = 5
	maximum = 59
Slowest flit = 138936
Fragmentation average = 0
	minimum = 0
	maximum = 0
Injected packet rate average = 0.299745
	minimum = 0.29135 (at node 22)
	maximum = 0.30835 (at node 61)
Accepted packet rate average = 0.299419
	minimum = 0.2901 (at node 21)
	maximum = 0.30835 (at node 28)
Injected flit rate average = 0.299745
	minimum = 0.29135 (at node 22)
	maximum = 0.30835 (at node 61)
Accepted flit rate average= 0.299419
	minimum = 0.2901 (at node 21)
	maximum = 0.30835 (at node 28)
Injected packet length average = 1
Accepted packet length average = 1
Total in-flight flits = 418 (0 measured)
latency change    = 0.000566936
throughput change = 0.000224393
4
Received nack credit for flit 403244
Requeued flit 403244
1
Received nack credit for flit 405031
Requeued flit 405031
3
Received nack credit for flit 407859
Requeued flit 407859
7
Received nack credit for flit 412736
Requeued flit 412736
1
Received nack credit for flit 434584
Requeued flit 434584
1
Received nack credit for flit 441178
Requeued flit 441178
5
Received nack credit for flit 448358
Requeued flit 448358
10
Received nack credit for flit 526082
Requeued flit 526082
5
Received nack credit for flit 549003
Requeued flit 549003
5
Received nack credit for flit 572102
Requeued flit 572102
Class 0:
Packet latency average = 22.1461
	minimum = 5
	maximum = 60
Network latency average = 22.1461
	minimum = 5
	maximum = 60
Slowest packet = 427827
Flit latency average = 22.1461
	minimum = 5
	maximum = 60
Slowest flit = 427827
Fragmentation average = 0
	minimum = 0
	maximum = 0
Injected packet rate average = 0.29983
	minimum = 0.288 (at node 4)
	maximum = 0.3112 (at node 42)
Accepted packet rate average = 0.299789
	minimum = 0.2868 (at node 54)
	maximum = 0.3119 (at node 46)
Injected flit rate average = 0.29983
	minimum = 0.288 (at node 4)
	maximum = 0.3112 (at node 42)
Accepted flit rate average= 0.299789
	minimum = 0.2868 (at node 54)
	maximum = 0.3119 (at node 46)
Injected packet length average = 1
Accepted packet length average = 1
Total in-flight flits = 444 (0 measured)
latency change    = 0.000791123
throughput change = 0.00123524
Warmed up ...Time used is 30000 cycles
4
Received nack credit for flit 627794
Requeued flit 627794
5
Received nack credit for flit 631388
Requeued flit 631388
5
Received nack credit for flit 637717
Requeued flit 637717
7
Received nack credit for flit 639643
Requeued flit 639643
1
Received nack credit for flit 671906
Requeued flit 671906
3
Received nack credit for flit 678628
Requeued flit 678628
1
Received nack credit for flit 691991
Requeued flit 691991
2
Received nack credit for flit 715976
Requeued flit 715976
2
Received nack credit for flit 730758
Requeued flit 730758
1
Received nack credit for flit 738507
Requeued flit 738507
7
Received nack credit for flit 740835
Requeued flit 740835
Class 0:
Packet latency average = 22.0911
	minimum = 5
	maximum = 61
Network latency average = 22.0911
	minimum = 5
	maximum = 61
Slowest packet = 730967
Flit latency average = 22.1
	minimum = 5
	maximum = 61
Slowest flit = 730967
Fragmentation average = 0
	minimum = 0
	maximum = 0
Injected packet rate average = 0.300491
	minimum = 0.2894 (at node 28)
	maximum = 0.3113 (at node 8)
Accepted packet rate average = 0.300516
	minimum = 0.2858 (at node 62)
	maximum = 0.3094 (at node 28)
Injected flit rate average = 0.300491
	minimum = 0.2894 (at node 28)
	maximum = 0.3113 (at node 8)
Accepted flit rate average= 0.300516
	minimum = 0.2858 (at node 62)
	maximum = 0.3094 (at node 28)
Injected packet length average = 1
Accepted packet length average = 1
Total in-flight flits = 428 (428 measured)
latency change    = 0.00249001
throughput change = 0.00241772
1
Received nack credit for flit 775901
Requeued flit 775901
5
Received nack credit for flit 782734
Requeued flit 782734
7
Received nack credit for flit 796910
Requeued flit 796910
3
Received nack credit for flit 804365
Requeued flit 804365
2
Received nack credit for flit 826314
Requeued flit 826314
2
Received nack credit for flit 854724
Requeued flit 854724
3
Received nack credit for flit 923863
Requeued flit 923863
6
Received nack credit for flit 943320
Requeued flit 943320
Class 0:
Packet latency average = 22.1129
	minimum = 5
	maximum = 61
Network latency average = 22.1129
	minimum = 5
	maximum = 61
Slowest packet = 730967
Flit latency average = 22.1173
	minimum = 5
	maximum = 61
Slowest flit = 730967
Fragmentation average = 0
	minimum = 0
	maximum = 0
Injected packet rate average = 0.30019
	minimum = 0.2873 (at node 28)
	maximum = 0.30755 (at node 40)
Accepted packet rate average = 0.30021
	minimum = 0.2888 (at node 62)
	maximum = 0.3077 (at node 15)
Injected flit rate average = 0.30019
	minimum = 0.2873 (at node 28)
	maximum = 0.30755 (at node 40)
Accepted flit rate average= 0.30021
	minimum = 0.2888 (at node 62)
	maximum = 0.3077 (at node 15)
Injected packet length average = 1
Accepted packet length average = 1
Total in-flight flits = 418 (418 measured)
latency change    = 0.000987238
throughput change = 0.00101752
4
Received nack credit for flit 1000017
Requeued flit 1000017
4
Received nack credit for flit 1003649
Requeued flit 1003649
2
Received nack credit for flit 1031735
Requeued flit 1031735
2
Received nack credit for flit 1041295
Requeued flit 1041295
4
Received nack credit for flit 1050965
Requeued flit 1050965
1
Received nack credit for flit 1057323
Requeued flit 1057323
2
Received nack credit for flit 1076983
Requeued flit 1076983
2
Received nack credit for flit 1091565
Requeued flit 1091565
1
Received nack credit for flit 1091999
Requeued flit 1091999
2
5
Received nack credit for flit 1107136
Requeued flit 1107136
Received nack credit for flit 1107044
Requeued flit 1107044
6
Received nack credit for flit 1136949
Requeued flit 1136949
2
Received nack credit for flit 1139266
Requeued flit 1139266
1
Received nack credit for flit 1140135
Requeued flit 1140135
10
Received nack credit for flit 1142026
Requeued flit 1142026
Class 0:
Packet latency average = 22.1029
	minimum = 5
	maximum = 61
Network latency average = 22.1029
	minimum = 5
	maximum = 61
Slowest packet = 730967
Flit latency average = 22.1058
	minimum = 5
	maximum = 61
Slowest flit = 730967
Fragmentation average = 0
	minimum = 0
	maximum = 0
Injected packet rate average = 0.299906
	minimum = 0.288467 (at node 28)
	maximum = 0.3076 (at node 53)
Accepted packet rate average = 0.299903
	minimum = 0.292733 (at node 14)
	maximum = 0.307833 (at node 15)
Injected flit rate average = 0.299906
	minimum = 0.288467 (at node 28)
	maximum = 0.3076 (at node 53)
Accepted flit rate average= 0.299903
	minimum = 0.292733 (at node 14)
	maximum = 0.307833 (at node 15)
Injected packet length average = 1
Accepted packet length average = 1
Total in-flight flits = 449 (449 measured)
latency change    = 0.000453515
throughput change = 0.00102377
Draining all recorded packets ...
Draining remaining packets ...
Time taken is 60086 cycles
====== Overall Traffic Statistics ======
====== Traffic class 0 ======
Packet latency average = 22.1056 (1 samples)
	minimum = 5 (1 samples)
	maximum = 61 (1 samples)
Network latency average = 22.1056 (1 samples)
	minimum = 5 (1 samples)
	maximum = 61 (1 samples)
Flit latency average = 22.1077 (1 samples)
	minimum = 5 (1 samples)
	maximum = 61 (1 samples)
Fragmentation average = 0 (1 samples)
	minimum = 0 (1 samples)
	maximum = 0 (1 samples)
Injected packet rate average = 0.299906 (1 samples)
	minimum = 0.288467 (1 samples)
	maximum = 0.3076 (1 samples)
Accepted packet rate average = 0.299903 (1 samples)
	minimum = 0.292733 (1 samples)
	maximum = 0.307833 (1 samples)
Injected flit rate average = 0.299906 (1 samples)
	minimum = 0.288467 (1 samples)
	maximum = 0.3076 (1 samples)
Accepted flit rate average = 0.299903 (1 samples)
	minimum = 0.292733 (1 samples)
	maximum = 0.307833 (1 samples)
Injected packet size average = 1 (1 samples)
Accepted packet size average = 1 (1 samples)
Hops average = 6.2464 (1 samples)
Total run time 103.636
