BEGIN Configuration File: examples/ecc_mesh88_config_1_0.550_packet_3
// $Id$

// Copyright (c) 2007-2015, Trustees of The Leland Stanford Junior University
// All rights reserved.
//
// Redistribution and use in source and binary forms, with or without
// modification, are permitted provided that the following conditions are met:
//
// Redistributions of source code must retain the above copyright notice, this
// list of conditions and the following disclaimer.
// Redistributions in binary form must reproduce the above copyright notice,
// this list of conditions and the following disclaimer in the documentation
// and/or other materials provided with the distribution.
//
// THIS SOFTWARE IS PROVIDED BY THE COPYRIGHT HOLDERS AND CONTRIBUTORS "AS IS"
// AND ANY EXPRESS OR IMPLIED WARRANTIES, INCLUDING, BUT NOT LIMITED TO, THE
// IMPLIED WARRANTIES OF MERCHANTABILITY AND FITNESS FOR A PARTICULAR PURPOSE
// ARE DISCLAIMED. IN NO EVENT SHALL THE COPYRIGHT OWNER OR CONTRIBUTORS BE
// LIABLE FOR ANY DIRECT, INDIRECT, INCIDENTAL, SPECIAL, EXEMPLARY, OR
// CONSEQUENTIAL DAMAGES (INCLUDING, BUT NOT LIMITED TO, PROCUREMENT OF
// SUBSTITUTE GOODS OR SERVICES; LOSS OF USE, DATA, OR PROFITS; OR BUSINESS
// INTERRUPTION) HOWEVER CAUSED AND ON ANY THEORY OF LIABILITY, WHETHER IN
// CONTRACT, STRICT LIABILITY, OR TORT (INCLUDING NEGLIGENCE OR OTHERWISE)
// ARISING IN ANY WAY OUT OF THE USE OF THIS SOFTWARE, EVEN IF ADVISED OF THE
// POSSIBILITY OF SUCH DAMAGE.

// Dragonfly
//




vc_buf_size = 256;


wait_for_tail_credit = 0;

//
// Router architecture
//
vc_allocator = separable_input_first; 
sw_allocator = separable_input_first;
alloc_iters  = 1;

credit_delay   = 2;
routing_delay  = 0;
vc_alloc_delay = 1;
sw_alloc_delay = 1;
st_final_delay = 1;

input_speedup     = 1;
output_speedup    = 1;
internal_speedup  = 2.0;


warmup_periods = 3;
sim_count          = 1;

sample_period  = 10000;  


routing_function = dor;
num_vcs     = 2;

priority = none;
traffic       = uniform; 

injection_rate = 0.55;
packet_size = 1;
injection_rate_uses_flits = 1;

topology = mesh;

k  = 8;
n  = 2;

fer = 3;
ecc = link;

watch_out=-;
//watch_file = watch.txt;

ecc = packet;

stats_out = examples/ecc_mesh88_config_1_0.550_packet_3.m;

END Configuration File: examples/ecc_mesh88_config_1_0.550_packet_3
Additional hops: 6
Set signal latency stall time: 12
Reenqueueing errored packet 171 at time 37
Additional hops: 9
Set signal latency stall time: 6
Additional hops: 13
Set signal latency stall time: 8
Additional hops: 20
Set signal latency stall time: 14
Reenqueueing errored packet 920 at time 49
Reenqueueing errored packet 1013 at time 53
Additional hops: 28
Set signal latency stall time: 16
Additional hops: 32
Set signal latency stall time: 8
Reenqueueing errored packet 715 at time 61
Additional hops: 43
Set signal latency stall time: 22
Additional hops: 53
Set signal latency stall time: 20
Reenqueueing errored packet 1306 at time 69
Reenqueueing errored packet 713 at time 73
Additional hops: 62
Set signal latency stall time: 18
Additional hops: 70
Set signal latency stall time: 16
Additional hops: 78
Set signal latency stall time: 16
Reenqueueing errored packet 894 at time 89
Reenqueueing errored packet 841 at time 90
Reenqueueing errored packet 1149 at time 92
Reenqueueing errored packet 1185 at time 93
Reenqueueing errored packet 773 at time 93
Additional hops: 87
Set signal latency stall time: 18
Additional hops: 93
Set signal latency stall time: 12
Additional hops: 96
Set signal latency stall time: 6
Additional hops: 101
Set signal latency stall time: 10
Additional hops: 109
Set signal latency stall time: 16
Additional hops: 121
Set signal latency stall time: 24
Reenqueueing errored packet 3121 at time 111
Reenqueueing errored packet 2658 at time 114
Additional hops: 127
Set signal latency stall time: 12
Reenqueueing errored packet 2481 at time 116
Reenqueueing errored packet 2139 at time 116
Reenqueueing errored packet 2231 at time 123
Additional hops: 133
Set signal latency stall time: 12
Reenqueueing errored packet 2725 at time 127
Reenqueueing errored packet 1498 at time 135
Additional hops: 136
Set signal latency stall time: 6
Additional hops: 141
Set signal latency stall time: 10
Reenqueueing errored packet 3361 at time 139
Reenqueueing errored packet 4284 at time 143
Additional hops: 149
Set signal latency stall time: 16
Additional hops: 156
Set signal latency stall time: 14
Additional hops: 166
Set signal latency stall time: 20
Reenqueueing errored packet 3804 at time 147
Reenqueueing errored packet 3959 at time 158
Reenqueueing errored packet 3178 at time 160
Additional hops: 172
Set signal latency stall time: 12
Reenqueueing errored packet 3420 at time 164
Additional hops: 178
Set signal latency stall time: 12
Additional hops: 186
Set signal latency stall time: 16
Reenqueueing errored packet 4066 at time 176
Reenqueueing errored packet 4493 at time 179
Additional hops: 193
Set signal latency stall time: 14
Additional hops: 201
Set signal latency stall time: 16
Additional hops: 204
Set signal latency stall time: 6
Additional hops: 208
Set signal latency stall time: 8
Reenqueueing errored packet 3872 at time 187
Additional hops: 216
Set signal latency stall time: 16
Reenqueueing errored packet 5893 at time 192
Additional hops: 226
Set signal latency stall time: 20
Additional hops: 236
Set signal latency stall time: 20
Reenqueueing errored packet 5588 at time 195
Reenqueueing errored packet 4739 at time 197
Reenqueueing errored packet 4774 at time 202
Reenqueueing errored packet 4724 at time 207
Additional hops: 243
Set signal latency stall time: 14
Reenqueueing errored packet 4962 at time 213
Reenqueueing errored packet 5163 at time 215
Reenqueueing errored packet 4976 at time 223
Additional hops: 252
Set signal latency stall time: 18
Additional hops: 259
Set signal latency stall time: 14
Additional hops: 265
Set signal latency stall time: 12
Reenqueueing errored packet 4878 at time 252
Additional hops: 270
Set signal latency stall time: 10
Additional hops: 278
Set signal latency stall time: 16
Additional hops: 288
Set signal latency stall time: 20
Additional hops: 297
Set signal latency stall time: 18
Reenqueueing errored packet 7547 at time 260
Reenqueueing errored packet 6741 at time 263
Reenqueueing errored packet 7782 at time 263
Additional hops: 309
Set signal latency stall time: 24
Additional hops: 320
Set signal latency stall time: 22
Reenqueueing errored packet 6118 at time 272
Reenqueueing errored packet 6449 at time 277
Reenqueueing errored packet 6205 at time 279
Additional hops: 329
Set signal latency stall time: 18
Additional hops: 343
Set signal latency stall time: 28
Reenqueueing errored packet 6591 at time 291
Reenqueueing errored packet 7022 at time 293
Additional hops: 351
Set signal latency stall time: 16
Additional hops: 359
Set signal latency stall time: 16
Reenqueueing errored packet 7848 at time 300
Additional hops: 365
Set signal latency stall time: 12
Additional hops: 373
Set signal latency stall time: 16
Additional hops: 379
Set signal latency stall time: 12
Additional hops: 387
Set signal latency stall time: 16
Additional hops: 394
Set signal latency stall time: 14
Additional hops: 400
Set signal latency stall time: 12
Reenqueueing errored packet 8685 at time 312
Additional hops: 404
Set signal latency stall time: 8
Reenqueueing errored packet 6390 at time 313
Reenqueueing errored packet 8010 at time 314
Reenqueueing errored packet 8809 at time 316
Reenqueueing errored packet 8895 at time 318
Reenqueueing errored packet 10093 at time 321
Reenqueueing errored packet 8916 at time 321
Reenqueueing errored packet 9032 at time 324
Reenqueueing errored packet 8994 at time 324
Reenqueueing errored packet 9192 at time 325
Additional hops: 410
Set signal latency stall time: 12
Additional hops: 418
Set signal latency stall time: 16
Reenqueueing errored packet 9797 at time 342
Reenqueueing errored packet 9827 at time 347
Additional hops: 427
Set signal latency stall time: 18
Additional hops: 441
Set signal latency stall time: 28
Additional hops: 449
Set signal latency stall time: 16
Additional hops: 451
Set signal latency stall time: 4
Reenqueueing errored packet 9614 at time 369
Reenqueueing errored packet 12625 at time 372
Reenqueueing errored packet 9701 at time 372
Additional hops: 456
Set signal latency stall time: 10
Additional hops: 465
Set signal latency stall time: 18
Additional hops: 477
Set signal latency stall time: 24
Reenqueueing errored packet 8325 at time 382
Reenqueueing errored packet 11561 at time 387
Additional hops: 489
Set signal latency stall time: 24
Additional hops: 497
Set signal latency stall time: 16
Additional hops: 506
Set signal latency stall time: 18
Reenqueueing errored packet 10559 at time 397
Additional hops: 515
Set signal latency stall time: 18
Additional hops: 520
Set signal latency stall time: 10
Reenqueueing errored packet 8188 at time 404
Additional hops: 528
Set signal latency stall time: 16
Reenqueueing errored packet 10821 at time 407
Additional hops: 539
Set signal latency stall time: 22
Additional hops: 547
Set signal latency stall time: 16
Additional hops: 556
Set signal latency stall time: 18
Reenqueueing errored packet 9511 at time 412
Reenqueueing errored packet 13328 at time 414
Reenqueueing errored packet 9448 at time 414
Additional hops: 564
Set signal latency stall time: 16
Additional hops: 574
Set signal latency stall time: 20
Reenqueueing errored packet 10937 at time 419
Reenqueueing errored packet 10936 at time 421
Additional hops: 582
Set signal latency stall time: 16
Additional hops: 593
Set signal latency stall time: 22
Reenqueueing errored packet 11521 at time 425
Additional hops: 601
Set signal latency stall time: 16
Reenqueueing errored packet 11019 at time 430
Reenqueueing errored packet 11468 at time 432
Additional hops: 610
Set signal latency stall time: 18
Reenqueueing errored packet 12064 at time 438
Reenqueueing errored packet 12831 at time 439
Additional hops: 615
Set signal latency stall time: 10
Additional hops: 622
Set signal latency stall time: 14
Reenqueueing errored packet 11129 at time 442
Additional hops: 630
Set signal latency stall time: 16
Reenqueueing errored packet 10292 at time 446
Reenqueueing errored packet 12449 at time 450
Additional hops: 639
Set signal latency stall time: 18
Reenqueueing errored packet 12583 at time 455
Additional hops: 646
Set signal latency stall time: 14
Additional hops: 656
Set signal latency stall time: 20
Reenqueueing errored packet 13209 at time 456
Reenqueueing errored packet 11226 at time 460
Additional hops: 665
Set signal latency stall time: 18
Additional hops: 677
Set signal latency stall time: 24
Reenqueueing errored packet 13020 at time 469
Reenqueueing errored packet 14807 at time 470
Additional hops: 680
Set signal latency stall time: 6
Reenqueueing errored packet 11342 at time 476
Reenqueueing errored packet 15060 at time 477
Reenqueueing errored packet 13430 at time 483
Additional hops: 684
Set signal latency stall time: 8
Additional hops: 693
Set signal latency stall time: 18
Additional hops: 702
Set signal latency stall time: 18
Additional hops: 712
Set signal latency stall time: 20
Additional hops: 715
Set signal latency stall time: 6
Reenqueueing errored packet 15542 at time 492
Reenqueueing errored packet 16738 at time 496
Additional hops: 721
Set signal latency stall time: 12
Reenqueueing errored packet 13248 at time 503
Additional hops: 724
Set signal latency stall time: 6
Reenqueueing errored packet 15012 at time 504
Additional hops: 729
Set signal latency stall time: 10
Reenqueueing errored packet 13264 at time 508
Reenqueueing errored packet 17220 at time 510
Reenqueueing errored packet 16002 at time 511
Additional hops: 735
Set signal latency stall time: 12
Reenqueueing errored packet 14676 at time 515
Additional hops: 745
Set signal latency stall time: 20
Additional hops: 751
Set signal latency stall time: 12
Additional hops: 756
Set signal latency stall time: 10
Additional hops: 761
Set signal latency stall time: 10
Reenqueueing errored packet 15667 at time 525
Additional hops: 768
Set signal latency stall time: 14
Additional hops: 770
Set signal latency stall time: 4
Reenqueueing errored packet 17361 at time 530
Reenqueueing errored packet 15979 at time 530
Additional hops: 775
Set signal latency stall time: 10
Reenqueueing errored packet 17600 at time 533
Reenqueueing errored packet 15637 at time 534
Reenqueueing errored packet 14009 at time 537
Additional hops: 785
Set signal latency stall time: 20
Additional hops: 796
Set signal latency stall time: 22
Additional hops: 807
Set signal latency stall time: 22
Reenqueueing errored packet 17195 at time 542
Additional hops: 817
Set signal latency stall time: 20
Additional hops: 829
Set signal latency stall time: 24
Reenqueueing errored packet 15347 at time 543
Additional hops: 833
Set signal latency stall time: 8
Additional hops: 840
Set signal latency stall time: 14
Additional hops: 851
Set signal latency stall time: 22
Additional hops: 857
Set signal latency stall time: 12
Reenqueueing errored packet 18649 at time 557
Reenqueueing errored packet 13638 at time 558
Reenqueueing errored packet 14206 at time 562
Reenqueueing errored packet 15983 at time 563
Reenqueueing errored packet 12947 at time 564
Additional hops: 865
Set signal latency stall time: 16
Reenqueueing errored packet 14614 at time 566
Reenqueueing errored packet 15386 at time 567
Reenqueueing errored packet 14672 at time 567
Additional hops: 876
Set signal latency stall time: 22
Reenqueueing errored packet 14598 at time 576
Additional hops: 883
Set signal latency stall time: 14
Reenqueueing errored packet 16592 at time 581
Additional hops: 886
Set signal latency stall time: 6
Additional hops: 893
Set signal latency stall time: 14
Additional hops: 897
Set signal latency stall time: 8
Additional hops: 903
Set signal latency stall time: 12
Reenqueueing errored packet 19838 at time 590
Reenqueueing errored packet 15294 at time 590
Reenqueueing errored packet 17337 at time 593
Additional hops: 911
Set signal latency stall time: 16
Reenqueueing errored packet 19905 at time 597
Reenqueueing errored packet 16897 at time 601
Additional hops: 916
Set signal latency stall time: 10
Additional hops: 926
Set signal latency stall time: 20
Reenqueueing errored packet 18323 at time 602
Reenqueueing errored packet 16342 at time 611
Reenqueueing errored packet 18921 at time 612
Reenqueueing errored packet 16995 at time 622
Additional hops: 938
Set signal latency stall time: 24
Additional hops: 942
Set signal latency stall time: 8
Additional hops: 947
Set signal latency stall time: 10
Reenqueueing errored packet 20194 at time 635
Additional hops: 951
Set signal latency stall time: 8
Reenqueueing errored packet 19290 at time 643
Additional hops: 959
Set signal latency stall time: 16
Additional hops: 972
Set signal latency stall time: 26
Reenqueueing errored packet 19845 at time 649
Reenqueueing errored packet 17196 at time 650
Additional hops: 981
Set signal latency stall time: 18
Reenqueueing errored packet 19215 at time 661
Additional hops: 988
Set signal latency stall time: 14
Additional hops: 997
Set signal latency stall time: 18
Additional hops: 1006
Set signal latency stall time: 18
Additional hops: 1010
Set signal latency stall time: 8
Additional hops: 1017
Set signal latency stall time: 14
Reenqueueing errored packet 16351 at time 673
Additional hops: 1021
Set signal latency stall time: 8
Additional hops: 1029
Set signal latency stall time: 16
Reenqueueing errored packet 20243 at time 678
Reenqueueing errored packet 17153 at time 678
Reenqueueing errored packet 21239 at time 679
Additional hops: 1032
Set signal latency stall time: 6
Reenqueueing errored packet 20960 at time 684
Reenqueueing errored packet 20967 at time 685
Reenqueueing errored packet 22398 at time 686
Reenqueueing errored packet 18998 at time 687
Additional hops: 1040
Set signal latency stall time: 16
Additional hops: 1050
Set signal latency stall time: 20
Additional hops: 1057
Set signal latency stall time: 14
Reenqueueing errored packet 23251 at time 689
Reenqueueing errored packet 19376 at time 693
Additional hops: 1062
Set signal latency stall time: 10
Reenqueueing errored packet 22268 at time 703
Additional hops: 1067
Set signal latency stall time: 10
Reenqueueing errored packet 21095 at time 704
Additional hops: 1075
Set signal latency stall time: 16
Additional hops: 1080
Set signal latency stall time: 10
Reenqueueing errored packet 23759 at time 708
Reenqueueing errored packet 18436 at time 709
Additional hops: 1090
Set signal latency stall time: 20
Reenqueueing errored packet 23600 at time 714
Reenqueueing errored packet 20955 at time 718
Reenqueueing errored packet 21940 at time 721
Reenqueueing errored packet 19170 at time 732
Additional hops: 1097
Set signal latency stall time: 14
Additional hops: 1099
Set signal latency stall time: 4
Reenqueueing errored packet 26439 at time 769
Reenqueueing errored packet 23406 at time 772
Additional hops: 1111
Set signal latency stall time: 24
Additional hops: 1120
Set signal latency stall time: 18
Additional hops: 1124
Set signal latency stall time: 8
Additional hops: 1130
Set signal latency stall time: 12
Reenqueueing errored packet 25535 at time 783
Additional hops: 1140
Set signal latency stall time: 20
Additional hops: 1154
Set signal latency stall time: 28
Reenqueueing errored packet 23252 at time 790
Reenqueueing errored packet 23593 at time 792
Additional hops: 1155
Set signal latency stall time: 2
Reenqueueing errored packet 27614 at time 796
Reenqueueing errored packet 22011 at time 797
Additional hops: 1163
Set signal latency stall time: 16
Additional hops: 1166
Set signal latency stall time: 6
Reenqueueing errored packet 21296 at time 804
Additional hops: 1175
Set signal latency stall time: 18
Reenqueueing errored packet 27679 at time 807
Additional hops: 1184
Set signal latency stall time: 18
Additional hops: 1193
Set signal latency stall time: 18
Additional hops: 1200
Set signal latency stall time: 14
Reenqueueing errored packet 21017 at time 815
Additional hops: 1209
Set signal latency stall time: 18
Reenqueueing errored packet 24846 at time 816
Additional hops: 1218
Set signal latency stall time: 18
Additional hops: 1224
Set signal latency stall time: 12
Reenqueueing errored packet 22474 at time 824
Reenqueueing errored packet 24129 at time 827
Additional hops: 1234
Set signal latency stall time: 20
Reenqueueing errored packet 24182 at time 830
Reenqueueing errored packet 22887 at time 830
Additional hops: 1241
Set signal latency stall time: 14
Additional hops: 1246
Set signal latency stall time: 10
Reenqueueing errored packet 22617 at time 834
Reenqueueing errored packet 24988 at time 835
Reenqueueing errored packet 21081 at time 839
Reenqueueing errored packet 24203 at time 842
Additional hops: 1256
Set signal latency stall time: 20
Additional hops: 1266
Set signal latency stall time: 20
Reenqueueing errored packet 24753 at time 846
Reenqueueing errored packet 22848 at time 850
Additional hops: 1273
Set signal latency stall time: 14
Reenqueueing errored packet 23804 at time 864
Reenqueueing errored packet 23991 at time 864
Additional hops: 1288
Set signal latency stall time: 30
Additional hops: 1293
Set signal latency stall time: 10
Additional hops: 1303
Set signal latency stall time: 20
Additional hops: 1311
Set signal latency stall time: 16
Additional hops: 1323
Set signal latency stall time: 24
Additional hops: 1334
Set signal latency stall time: 22
Additional hops: 1340
Set signal latency stall time: 12
Reenqueueing errored packet 25146 at time 877
Reenqueueing errored packet 26747 at time 878
Additional hops: 1345
Set signal latency stall time: 10
Additional hops: 1350
Set signal latency stall time: 10
Additional hops: 1354
Set signal latency stall time: 8
Additional hops: 1361
Set signal latency stall time: 14
Reenqueueing errored packet 25690 at time 885
Additional hops: 1370
Set signal latency stall time: 18
Reenqueueing errored packet 25187 at time 887
Reenqueueing errored packet 27209 at time 889
Reenqueueing errored packet 30144 at time 890
Reenqueueing errored packet 30130 at time 890
Reenqueueing errored packet 28715 at time 891
Reenqueueing errored packet 24145 at time 895
Reenqueueing errored packet 25080 at time 897
Reenqueueing errored packet 25506 at time 897
Reenqueueing errored packet 25906 at time 898
Additional hops: 1375
Set signal latency stall time: 10
Additional hops: 1382
Set signal latency stall time: 14
Additional hops: 1389
Set signal latency stall time: 14
Additional hops: 1396
Set signal latency stall time: 14
Reenqueueing errored packet 24599 at time 905
Reenqueueing errored packet 28379 at time 910
Reenqueueing errored packet 23829 at time 915
Reenqueueing errored packet 27298 at time 915
Reenqueueing errored packet 29538 at time 916
Additional hops: 1404
Set signal latency stall time: 16
Additional hops: 1413
Set signal latency stall time: 18
Additional hops: 1425
Set signal latency stall time: 24
Additional hops: 1433
Set signal latency stall time: 16
Reenqueueing errored packet 28391 at time 944
Reenqueueing errored packet 24594 at time 947
Additional hops: 1438
Set signal latency stall time: 10
Reenqueueing errored packet 28294 at time 958
Additional hops: 1444
Set signal latency stall time: 12
Reenqueueing errored packet 31482 at time 960
Reenqueueing errored packet 24281 at time 960
Additional hops: 1446
Set signal latency stall time: 4
Reenqueueing errored packet 33292 at time 966
Additional hops: 1453
Set signal latency stall time: 14
Reenqueueing errored packet 31384 at time 971
Additional hops: 1457
Set signal latency stall time: 8
Additional hops: 1464
Set signal latency stall time: 14
Reenqueueing errored packet 33464 at time 984
Reenqueueing errored packet 27270 at time 985
Additional hops: 1468
Set signal latency stall time: 8
Additional hops: 1471
Set signal latency stall time: 6
Reenqueueing errored packet 29741 at time 998
Additional hops: 1480
Set signal latency stall time: 18
Additional hops: 1491
Set signal latency stall time: 22
Reenqueueing errored packet 32374 at time 1003
Reenqueueing errored packet 32237 at time 1003
Additional hops: 1499
Set signal latency stall time: 16
Additional hops: 1504
Set signal latency stall time: 10
Additional hops: 1508
Set signal latency stall time: 8
Additional hops: 1515
Set signal latency stall time: 14
Reenqueueing errored packet 26360 at time 1017
Additional hops: 1526
Set signal latency stall time: 22
Reenqueueing errored packet 31918 at time 1020
Reenqueueing errored packet 32569 at time 1021
Reenqueueing errored packet 27922 at time 1022
Reenqueueing errored packet 28472 at time 1025
Additional hops: 1535
Set signal latency stall time: 18
Reenqueueing errored packet 30716 at time 1027
Additional hops: 1542
Set signal latency stall time: 14
Additional hops: 1550
Set signal latency stall time: 16
Additional hops: 1557
Set signal latency stall time: 14
Reenqueueing errored packet 31202 at time 1042
Reenqueueing errored packet 28483 at time 1042
Additional hops: 1563
Set signal latency stall time: 12
Reenqueueing errored packet 32331 at time 1044
Additional hops: 1568
Set signal latency stall time: 10
Reenqueueing errored packet 31254 at time 1047
Reenqueueing errored packet 29722 at time 1052
Additional hops: 1574
Set signal latency stall time: 12
Reenqueueing errored packet 31624 at time 1055
Reenqueueing errored packet 34126 at time 1056
Additional hops: 1585
Set signal latency stall time: 22
Additional hops: 1595
Set signal latency stall time: 20
Additional hops: 1607
Set signal latency stall time: 24
Additional hops: 1610
Set signal latency stall time: 6
Reenqueueing errored packet 31831 at time 1065
Reenqueueing errored packet 36649 at time 1067
Additional hops: 1615
Set signal latency stall time: 10
Additional hops: 1617
Set signal latency stall time: 4
Reenqueueing errored packet 36379 at time 1078
Reenqueueing errored packet 30493 at time 1079
Additional hops: 1621
Set signal latency stall time: 8
Additional hops: 1631
Set signal latency stall time: 20
Additional hops: 1640
Set signal latency stall time: 18
Reenqueueing errored packet 28347 at time 1081
Reenqueueing errored packet 36848 at time 1082
Reenqueueing errored packet 30956 at time 1083
Reenqueueing errored packet 37193 at time 1088
Additional hops: 1646
Set signal latency stall time: 12
Additional hops: 1653
Set signal latency stall time: 14
Reenqueueing errored packet 32199 at time 1099
Reenqueueing errored packet 31899 at time 1100
Reenqueueing errored packet 34284 at time 1101
Additional hops: 1661
Set signal latency stall time: 16
Additional hops: 1665
Set signal latency stall time: 8
Additional hops: 1669
Set signal latency stall time: 8
Reenqueueing errored packet 32947 at time 1112
Additional hops: 1675
Set signal latency stall time: 12
Reenqueueing errored packet 34986 at time 1114
Additional hops: 1682
Set signal latency stall time: 14
Reenqueueing errored packet 34094 at time 1118
Reenqueueing errored packet 35259 at time 1119
Additional hops: 1689
Set signal latency stall time: 14
Reenqueueing errored packet 34317 at time 1125
Additional hops: 1698
Set signal latency stall time: 18
Additional hops: 1703
Set signal latency stall time: 10
Additional hops: 1711
Set signal latency stall time: 16
Reenqueueing errored packet 35575 at time 1131
Reenqueueing errored packet 36254 at time 1136
Reenqueueing errored packet 36940 at time 1137
Reenqueueing errored packet 34309 at time 1145
Reenqueueing errored packet 36737 at time 1146
Additional hops: 1717
Set signal latency stall time: 12
Reenqueueing errored packet 34044 at time 1159
Additional hops: 1721
Set signal latency stall time: 8
Additional hops: 1727
Set signal latency stall time: 12
Reenqueueing errored packet 39904 at time 1174
Reenqueueing errored packet 35793 at time 1179
Additional hops: 1733
Set signal latency stall time: 12
Additional hops: 1737
Set signal latency stall time: 8
Additional hops: 1744
Set signal latency stall time: 14
Reenqueueing errored packet 36053 at time 1197
Additional hops: 1750
Set signal latency stall time: 12
Reenqueueing errored packet 41122 at time 1198
Additional hops: 1755
Set signal latency stall time: 10
Additional hops: 1763
Set signal latency stall time: 16
Reenqueueing errored packet 36628 at time 1209
Reenqueueing errored packet 40503 at time 1210
Additional hops: 1768
Set signal latency stall time: 10
Reenqueueing errored packet 37189 at time 1212
Additional hops: 1776
Set signal latency stall time: 16
Additional hops: 1782
Set signal latency stall time: 12
Reenqueueing errored packet 36572 at time 1219
Additional hops: 1786
Set signal latency stall time: 8
Additional hops: 1796
Set signal latency stall time: 20
Reenqueueing errored packet 41819 at time 1222
Additional hops: 1803
Set signal latency stall time: 14
Reenqueueing errored packet 39932 at time 1230
Reenqueueing errored packet 37460 at time 1231
Additional hops: 1809
Set signal latency stall time: 12
Additional hops: 1816
Set signal latency stall time: 14
Reenqueueing errored packet 36233 at time 1234
Reenqueueing errored packet 39987 at time 1239
Reenqueueing errored packet 36142 at time 1242
Additional hops: 1818
Set signal latency stall time: 4
Additional hops: 1822
Set signal latency stall time: 8
Reenqueueing errored packet 40385 at time 1244
Reenqueueing errored packet 40457 at time 1247
Reenqueueing errored packet 42252 at time 1247
Additional hops: 1830
Set signal latency stall time: 16
Reenqueueing errored packet 42207 at time 1252
Additional hops: 1838
Set signal latency stall time: 16
Additional hops: 1842
Set signal latency stall time: 8
Additional hops: 1853
Set signal latency stall time: 22
Additional hops: 1858
Set signal latency stall time: 10
Reenqueueing errored packet 38518 at time 1266
Additional hops: 1872
Set signal latency stall time: 28
Reenqueueing errored packet 43146 at time 1267
Reenqueueing errored packet 39999 at time 1270
Reenqueueing errored packet 41926 at time 1274
Additional hops: 1878
Set signal latency stall time: 12
Reenqueueing errored packet 35319 at time 1283
Additional hops: 1879
Set signal latency stall time: 2
Additional hops: 1887
Set signal latency stall time: 16
Additional hops: 1895
Set signal latency stall time: 16
Reenqueueing errored packet 43880 at time 1293
Reenqueueing errored packet 45054 at time 1294
Reenqueueing errored packet 36400 at time 1295
Additional hops: 1903
Set signal latency stall time: 16
Additional hops: 1908
Set signal latency stall time: 10
Additional hops: 1916
Set signal latency stall time: 16
Reenqueueing errored packet 39195 at time 1309
Reenqueueing errored packet 40160 at time 1309
Additional hops: 1921
Set signal latency stall time: 10
Additional hops: 1929
Set signal latency stall time: 16
Reenqueueing errored packet 44862 at time 1313
Reenqueueing errored packet 42811 at time 1314
Additional hops: 1934
Set signal latency stall time: 10
Additional hops: 1936
Set signal latency stall time: 4
Reenqueueing errored packet 42674 at time 1321
Additional hops: 1946
Set signal latency stall time: 20
Reenqueueing errored packet 45949 at time 1324
Reenqueueing errored packet 39740 at time 1324
Additional hops: 1950
Set signal latency stall time: 8
Additional hops: 1958
Set signal latency stall time: 16
Additional hops: 1966
Set signal latency stall time: 16
Reenqueueing errored packet 42293 at time 1329
Reenqueueing errored packet 41033 at time 1329
Reenqueueing errored packet 45915 at time 1334
Additional hops: 1972
Set signal latency stall time: 12
Reenqueueing errored packet 39739 at time 1343
Reenqueueing errored packet 40987 at time 1343
Reenqueueing errored packet 43051 at time 1344
Reenqueueing errored packet 43230 at time 1354
Additional hops: 1982
Set signal latency stall time: 20
Additional hops: 1994
Set signal latency stall time: 24
Additional hops: 2003
Set signal latency stall time: 18
Reenqueueing errored packet 41372 at time 1375
Additional hops: 2008
Set signal latency stall time: 10
Additional hops: 2014
Set signal latency stall time: 12
Additional hops: 2021
Set signal latency stall time: 14
Reenqueueing errored packet 40642 at time 1379
Additional hops: 2030
Set signal latency stall time: 18
Reenqueueing errored packet 44879 at time 1381
Reenqueueing errored packet 43934 at time 1388
Additional hops: 2040
Set signal latency stall time: 20
Reenqueueing errored packet 44765 at time 1390
Reenqueueing errored packet 39490 at time 1393
Additional hops: 2045
Set signal latency stall time: 10
Reenqueueing errored packet 44061 at time 1399
Additional hops: 2053
Set signal latency stall time: 16
Reenqueueing errored packet 45348 at time 1407
Reenqueueing errored packet 41915 at time 1410
Additional hops: 2058
Set signal latency stall time: 10
Additional hops: 2066
Set signal latency stall time: 16
Additional hops: 2075
Set signal latency stall time: 18
Reenqueueing errored packet 42517 at time 1416
Additional hops: 2082
Set signal latency stall time: 14
Reenqueueing errored packet 48844 at time 1422
Additional hops: 2087
Set signal latency stall time: 10
Additional hops: 2090
Set signal latency stall time: 6
Additional hops: 2100
Set signal latency stall time: 20
Reenqueueing errored packet 49481 at time 1431
Reenqueueing errored packet 42352 at time 1432
Reenqueueing errored packet 44251 at time 1433
Reenqueueing errored packet 42398 at time 1434
Reenqueueing errored packet 43410 at time 1435
Additional hops: 2107
Set signal latency stall time: 14
Additional hops: 2117
Set signal latency stall time: 20
Additional hops: 2123
Set signal latency stall time: 12
Additional hops: 2126
Set signal latency stall time: 6
Additional hops: 2132
Set signal latency stall time: 12
Additional hops: 2137
Set signal latency stall time: 10
Additional hops: 2139
Set signal latency stall time: 4
Reenqueueing errored packet 49953 at time 1448
Additional hops: 2145
Set signal latency stall time: 12
Reenqueueing errored packet 40851 at time 1449
Reenqueueing errored packet 50330 at time 1450
Additional hops: 2153
Set signal latency stall time: 16
Reenqueueing errored packet 43073 at time 1452
Additional hops: 2164
Set signal latency stall time: 22
Additional hops: 2170
Set signal latency stall time: 12
Reenqueueing errored packet 47778 at time 1454
Reenqueueing errored packet 48851 at time 1455
Reenqueueing errored packet 47978 at time 1456
Reenqueueing errored packet 45875 at time 1461
Reenqueueing errored packet 42664 at time 1462
Additional hops: 2174
Set signal latency stall time: 8
Reenqueueing errored packet 45036 at time 1466
Reenqueueing errored packet 48413 at time 1467
Additional hops: 2184
Set signal latency stall time: 20
Additional hops: 2191
Set signal latency stall time: 14
Additional hops: 2197
Set signal latency stall time: 12
Additional hops: 2206
Set signal latency stall time: 18
Additional hops: 2209
Set signal latency stall time: 6
Additional hops: 2216
Set signal latency stall time: 14
Reenqueueing errored packet 50610 at time 1474
Reenqueueing errored packet 40153 at time 1475
Reenqueueing errored packet 50999 at time 1477
Additional hops: 2225
Set signal latency stall time: 18
Additional hops: 2230
Set signal latency stall time: 10
Reenqueueing errored packet 47406 at time 1483
Reenqueueing errored packet 41958 at time 1483
Additional hops: 2239
Set signal latency stall time: 18
Reenqueueing errored packet 48554 at time 1487
Reenqueueing errored packet 38446 at time 1488
Reenqueueing errored packet 42035 at time 1489
Additional hops: 2243
Set signal latency stall time: 8
Reenqueueing errored packet 47814 at time 1493
Additional hops: 2251
Set signal latency stall time: 16
Reenqueueing errored packet 44596 at time 1499
Reenqueueing errored packet 46269 at time 1500
Additional hops: 2257
Set signal latency stall time: 12
Additional hops: 2262
Set signal latency stall time: 10
Additional hops: 2267
Set signal latency stall time: 10
Reenqueueing errored packet 45357 at time 1504
Reenqueueing errored packet 48445 at time 1510
Additional hops: 2271
Set signal latency stall time: 8
Reenqueueing errored packet 45816 at time 1513
Reenqueueing errored packet 47055 at time 1513
Reenqueueing errored packet 51903 at time 1514
Reenqueueing errored packet 52443 at time 1519
Additional hops: 2280
Set signal latency stall time: 18
Additional hops: 2288
Set signal latency stall time: 16
Additional hops: 2293
Set signal latency stall time: 10
Additional hops: 2304
Set signal latency stall time: 22
Additional hops: 2307
Set signal latency stall time: 6
Reenqueueing errored packet 49641 at time 1538
Reenqueueing errored packet 44262 at time 1538
Reenqueueing errored packet 44663 at time 1538
Reenqueueing errored packet 48750 at time 1539
Additional hops: 2310
Set signal latency stall time: 6
Additional hops: 2318
Set signal latency stall time: 16
Additional hops: 2323
Set signal latency stall time: 10
Additional hops: 2329
Set signal latency stall time: 12
Reenqueueing errored packet 51461 at time 1547
Additional hops: 2336
Set signal latency stall time: 14
Additional hops: 2348
Set signal latency stall time: 24
Additional hops: 2351
Set signal latency stall time: 6
Additional hops: 2358
Set signal latency stall time: 14
Reenqueueing errored packet 43440 at time 1552
Reenqueueing errored packet 47243 at time 1555
Reenqueueing errored packet 53435 at time 1556
Reenqueueing errored packet 46291 at time 1559
Additional hops: 2369
Set signal latency stall time: 22
Reenqueueing errored packet 41660 at time 1561
Reenqueueing errored packet 43549 at time 1562
Additional hops: 2376
Set signal latency stall time: 14
Additional hops: 2381
Set signal latency stall time: 10
Additional hops: 2386
Set signal latency stall time: 10
Reenqueueing errored packet 45484 at time 1565
Additional hops: 2393
Set signal latency stall time: 14
Reenqueueing errored packet 47655 at time 1572
Reenqueueing errored packet 52073 at time 1574
Reenqueueing errored packet 52145 at time 1575
Additional hops: 2398
Set signal latency stall time: 10
Reenqueueing errored packet 46018 at time 1578
Additional hops: 2408
Set signal latency stall time: 20
Reenqueueing errored packet 48488 at time 1583
Reenqueueing errored packet 47145 at time 1583
Reenqueueing errored packet 52453 at time 1588
Additional hops: 2413
Set signal latency stall time: 10
Additional hops: 2420
Set signal latency stall time: 14
Additional hops: 2430
Set signal latency stall time: 20
Reenqueueing errored packet 47666 at time 1599
Reenqueueing errored packet 51104 at time 1601
Additional hops: 2438
Set signal latency stall time: 16
Additional hops: 2445
Set signal latency stall time: 14
Additional hops: 2452
Set signal latency stall time: 14
Reenqueueing errored packet 50214 at time 1609
Additional hops: 2458
Set signal latency stall time: 12
Additional hops: 2465
Set signal latency stall time: 14
Additional hops: 2473
Set signal latency stall time: 16
Reenqueueing errored packet 48567 at time 1615
Additional hops: 2478
Set signal latency stall time: 10
Reenqueueing errored packet 52841 at time 1617
Reenqueueing errored packet 45919 at time 1619
Reenqueueing errored packet 48672 at time 1621
Additional hops: 2486
Set signal latency stall time: 16
Additional hops: 2490
Set signal latency stall time: 8
Reenqueueing errored packet 47673 at time 1623
Additional hops: 2498
Set signal latency stall time: 16
Additional hops: 2507
Set signal latency stall time: 18
Reenqueueing errored packet 55549 at time 1626
Additional hops: 2513
Set signal latency stall time: 12
Reenqueueing errored packet 47217 at time 1628
Reenqueueing errored packet 52023 at time 1630
Reenqueueing errored packet 52103 at time 1630
Additional hops: 2517
Set signal latency stall time: 8
Additional hops: 2527
Set signal latency stall time: 20
Additional hops: 2540
Set signal latency stall time: 26
Reenqueueing errored packet 53522 at time 1638
Additional hops: 2550
Set signal latency stall time: 20
Reenqueueing errored packet 50623 at time 1640
Reenqueueing errored packet 50303 at time 1640
Reenqueueing errored packet 56720 at time 1641
Additional hops: 2560
Set signal latency stall time: 20
Reenqueueing errored packet 48988 at time 1643
Additional hops: 2564
Set signal latency stall time: 8
Additional hops: 2572
Set signal latency stall time: 16
Additional hops: 2579
Set signal latency stall time: 14
Additional hops: 2585
Set signal latency stall time: 12
Reenqueueing errored packet 56853 at time 1655
Reenqueueing errored packet 47404 at time 1655
Additional hops: 2592
Set signal latency stall time: 14
Reenqueueing errored packet 47232 at time 1660
Reenqueueing errored packet 53593 at time 1663
Reenqueueing errored packet 52298 at time 1663
Reenqueueing errored packet 51479 at time 1663
Reenqueueing errored packet 47851 at time 1663
Additional hops: 2595
Set signal latency stall time: 6
Reenqueueing errored packet 48274 at time 1664
Additional hops: 2605
Set signal latency stall time: 20
Reenqueueing errored packet 57955 at time 1670
Reenqueueing errored packet 49666 at time 1672
Additional hops: 2616
Set signal latency stall time: 22
Additional hops: 2622
Set signal latency stall time: 12
Additional hops: 2633
Set signal latency stall time: 22
Reenqueueing errored packet 55291 at time 1688
Reenqueueing errored packet 49975 at time 1688
Additional hops: 2641
Set signal latency stall time: 16
Additional hops: 2648
Set signal latency stall time: 14
Additional hops: 2654
Set signal latency stall time: 12
Reenqueueing errored packet 50795 at time 1696
Additional hops: 2661
Set signal latency stall time: 14
Reenqueueing errored packet 50675 at time 1698
Additional hops: 2665
Set signal latency stall time: 8
Additional hops: 2672
Set signal latency stall time: 14
Additional hops: 2676
Set signal latency stall time: 8
Reenqueueing errored packet 51188 at time 1705
Additional hops: 2688
Set signal latency stall time: 24
Reenqueueing errored packet 54812 at time 1707
Reenqueueing errored packet 55603 at time 1707
Reenqueueing errored packet 56413 at time 1710
Reenqueueing errored packet 57534 at time 1711
Additional hops: 2695
Set signal latency stall time: 14
Additional hops: 2704
Set signal latency stall time: 18
Additional hops: 2711
Set signal latency stall time: 14
Reenqueueing errored packet 46585 at time 1717
Additional hops: 2717
Set signal latency stall time: 12
Additional hops: 2724
Set signal latency stall time: 14
Reenqueueing errored packet 51787 at time 1727
Reenqueueing errored packet 52994 at time 1730
Additional hops: 2736
Set signal latency stall time: 24
Reenqueueing errored packet 51167 at time 1731
Reenqueueing errored packet 53176 at time 1732
Additional hops: 2747
Set signal latency stall time: 22
Reenqueueing errored packet 56516 at time 1734
Reenqueueing errored packet 52590 at time 1737
Additional hops: 2756
Set signal latency stall time: 18
Reenqueueing errored packet 49924 at time 1755
Reenqueueing errored packet 54852 at time 1756
Additional hops: 2767
Set signal latency stall time: 22
Reenqueueing errored packet 57395 at time 1758
Additional hops: 2770
Set signal latency stall time: 6
Reenqueueing errored packet 55408 at time 1765
Additional hops: 2774
Set signal latency stall time: 8
Additional hops: 2784
Set signal latency stall time: 20
Additional hops: 2788
Set signal latency stall time: 8
Additional hops: 2800
Set signal latency stall time: 24
Additional hops: 2808
Set signal latency stall time: 16
Additional hops: 2816
Set signal latency stall time: 16
Reenqueueing errored packet 56802 at time 1780
Reenqueueing errored packet 53387 at time 1780
Reenqueueing errored packet 58214 at time 1782
Additional hops: 2822
Set signal latency stall time: 12
Additional hops: 2830
Set signal latency stall time: 16
Additional hops: 2836
Set signal latency stall time: 12
Additional hops: 2854
Set signal latency stall time: 36
Reenqueueing errored packet 53926 at time 1793
Reenqueueing errored packet 51562 at time 1793
Reenqueueing errored packet 55412 at time 1795
Reenqueueing errored packet 54044 at time 1796
Reenqueueing errored packet 58705 at time 1800
Reenqueueing errored packet 53045 at time 1800
Reenqueueing errored packet 53336 at time 1803
Additional hops: 2862
Set signal latency stall time: 16
Additional hops: 2865
Set signal latency stall time: 6
Reenqueueing errored packet 44663 at time 1827
Additional hops: 2870
Set signal latency stall time: 10
Additional hops: 2878
Set signal latency stall time: 16
Reenqueueing errored packet 63552 at time 1830
Additional hops: 2886
Set signal latency stall time: 16
Additional hops: 2891
Set signal latency stall time: 10
Reenqueueing errored packet 59558 at time 1839
Reenqueueing errored packet 57715 at time 1839
Reenqueueing errored packet 53541 at time 1846
Additional hops: 2901
Set signal latency stall time: 20
Reenqueueing errored packet 53230 at time 1849
Reenqueueing errored packet 56706 at time 1851
Additional hops: 2909
Set signal latency stall time: 16
Additional hops: 2920
Set signal latency stall time: 22
Additional hops: 2923
Set signal latency stall time: 6
Additional hops: 2930
Set signal latency stall time: 14
Additional hops: 2934
Set signal latency stall time: 8
Additional hops: 2945
Set signal latency stall time: 22
Additional hops: 2950
Set signal latency stall time: 10
Reenqueueing errored packet 60913 at time 1860
Additional hops: 2956
Set signal latency stall time: 12
Reenqueueing errored packet 59995 at time 1863
Additional hops: 2966
Set signal latency stall time: 20
Reenqueueing errored packet 62267 at time 1867
Reenqueueing errored packet 54663 at time 1868
Reenqueueing errored packet 60349 at time 1868
Reenqueueing errored packet 53898 at time 1869
Reenqueueing errored packet 51761 at time 1874
Reenqueueing errored packet 60851 at time 1875
Reenqueueing errored packet 53632 at time 1879
Additional hops: 2974
Set signal latency stall time: 16
Additional hops: 2981
Set signal latency stall time: 14
Additional hops: 2988
Set signal latency stall time: 14
Additional hops: 2994
Set signal latency stall time: 12
Reenqueueing errored packet 56385 at time 1887
Additional hops: 3003
Set signal latency stall time: 18
Additional hops: 3012
Set signal latency stall time: 18
Reenqueueing errored packet 57728 at time 1898
Reenqueueing errored packet 54835 at time 1898
Reenqueueing errored packet 61382 at time 1899
Reenqueueing errored packet 58131 at time 1899
Additional hops: 3024
Set signal latency stall time: 24
Reenqueueing errored packet 61924 at time 1906
Reenqueueing errored packet 57507 at time 1907
Additional hops: 3035
Set signal latency stall time: 22
Additional hops: 3048
Set signal latency stall time: 26
Additional hops: 3057
Set signal latency stall time: 18
Additional hops: 3063
Set signal latency stall time: 12
Additional hops: 3072
Set signal latency stall time: 18
Additional hops: 3082
Set signal latency stall time: 20
Additional hops: 3088
Set signal latency stall time: 12
Reenqueueing errored packet 55556 at time 1928
Additional hops: 3090
Set signal latency stall time: 4
Reenqueueing errored packet 62178 at time 1930
Reenqueueing errored packet 56274 at time 1931
Reenqueueing errored packet 63420 at time 1932
Reenqueueing errored packet 64708 at time 1933
Reenqueueing errored packet 54649 at time 1936
Additional hops: 3100
Set signal latency stall time: 20
Reenqueueing errored packet 59970 at time 1938
Reenqueueing errored packet 58759 at time 1940
Reenqueueing errored packet 58195 at time 1945
Additional hops: 3104
Set signal latency stall time: 8
Reenqueueing errored packet 62901 at time 1958
Additional hops: 3111
Set signal latency stall time: 14
Reenqueueing errored packet 67903 at time 1964
Additional hops: 3117
Set signal latency stall time: 12
Additional hops: 3126
Set signal latency stall time: 18
Additional hops: 3138
Set signal latency stall time: 24
Additional hops: 3142
Set signal latency stall time: 8
Reenqueueing errored packet 58777 at time 1975
Reenqueueing errored packet 60594 at time 1980
Reenqueueing errored packet 66522 at time 1982
Additional hops: 3147
Set signal latency stall time: 10
Reenqueueing errored packet 59885 at time 1991
Additional hops: 3150
Set signal latency stall time: 6
Reenqueueing errored packet 58895 at time 1997
Reenqueueing errored packet 60559 at time 1998
Reenqueueing errored packet 67257 at time 2001
Additional hops: 3157
Set signal latency stall time: 14
Additional hops: 3169
Set signal latency stall time: 24
Additional hops: 3174
Set signal latency stall time: 10
Reenqueueing errored packet 63075 at time 2016
Additional hops: 3180
Set signal latency stall time: 12
Additional hops: 3186
Set signal latency stall time: 12
Additional hops: 3190
Set signal latency stall time: 8
Additional hops: 3194
Set signal latency stall time: 8
Reenqueueing errored packet 66684 at time 2024
Additional hops: 3196
Set signal latency stall time: 4
Additional hops: 3203
Set signal latency stall time: 14
Reenqueueing errored packet 70004 at time 2029
Reenqueueing errored packet 70779 at time 2030
Reenqueueing errored packet 65589 at time 2030
Reenqueueing errored packet 65420 at time 2030
Reenqueueing errored packet 56845 at time 2031
Reenqueueing errored packet 67586 at time 2032
Additional hops: 3209
Set signal latency stall time: 12
Additional hops: 3215
Set signal latency stall time: 12
Additional hops: 3219
Set signal latency stall time: 8
Reenqueueing errored packet 61519 at time 2040
Reenqueueing errored packet 66029 at time 2046
Reenqueueing errored packet 64770 at time 2048
Reenqueueing errored packet 62071 at time 2049
Additional hops: 3227
Set signal latency stall time: 16
Additional hops: 3229
Set signal latency stall time: 4
Additional hops: 3237
Set signal latency stall time: 16
Additional hops: 3248
Set signal latency stall time: 22
Additional hops: 3250
Set signal latency stall time: 4
Additional hops: 3256
Set signal latency stall time: 12
Additional hops: 3261
Set signal latency stall time: 10
Reenqueueing errored packet 71826 at time 2061
Additional hops: 3267
Set signal latency stall time: 12
Reenqueueing errored packet 71934 at time 2062
Additional hops: 3273
Set signal latency stall time: 12
Reenqueueing errored packet 68158 at time 2070
Additional hops: 3287
Set signal latency stall time: 28
Reenqueueing errored packet 63044 at time 2071
Additional hops: 3298
Set signal latency stall time: 22
Reenqueueing errored packet 60159 at time 2072
Additional hops: 3308
Set signal latency stall time: 20
Additional hops: 3315
Set signal latency stall time: 14
Reenqueueing errored packet 66544 at time 2074
Reenqueueing errored packet 64464 at time 2074
Additional hops: 3318
Set signal latency stall time: 6
Reenqueueing errored packet 67907 at time 2079
Additional hops: 3323
Set signal latency stall time: 10
Reenqueueing errored packet 62284 at time 2080
Reenqueueing errored packet 72443 at time 2083
Reenqueueing errored packet 62732 at time 2087
Additional hops: 3328
Set signal latency stall time: 10
Additional hops: 3343
Set signal latency stall time: 30
Reenqueueing errored packet 66265 at time 2090
Additional hops: 3349
Set signal latency stall time: 12
Reenqueueing errored packet 61863 at time 2093
Reenqueueing errored packet 60152 at time 2094
Additional hops: 3354
Set signal latency stall time: 10
Reenqueueing errored packet 72493 at time 2099
Reenqueueing errored packet 59808 at time 2099
Additional hops: 3357
Set signal latency stall time: 6
Reenqueueing errored packet 64968 at time 2104
Reenqueueing errored packet 68927 at time 2106
Additional hops: 3363
Set signal latency stall time: 12
Reenqueueing errored packet 73284 at time 2110
Additional hops: 3373
Set signal latency stall time: 20
Additional hops: 3379
Set signal latency stall time: 12
Additional hops: 3387
Set signal latency stall time: 16
Reenqueueing errored packet 63508 at time 2119
Reenqueueing errored packet 60457 at time 2120
Additional hops: 3390
Set signal latency stall time: 6
Additional hops: 3399
Set signal latency stall time: 18
Additional hops: 3407
Set signal latency stall time: 16
Reenqueueing errored packet 60768 at time 2129
Reenqueueing errored packet 74133 at time 2131
Reenqueueing errored packet 61508 at time 2131
Additional hops: 3412
Set signal latency stall time: 10
Additional hops: 3421
Set signal latency stall time: 18
Reenqueueing errored packet 67626 at time 2134
Additional hops: 3434
Set signal latency stall time: 26
Additional hops: 3444
Set signal latency stall time: 20
Additional hops: 3452
Set signal latency stall time: 16
Reenqueueing errored packet 70642 at time 2143
Reenqueueing errored packet 67320 at time 2145
Reenqueueing errored packet 64879 at time 2146
Reenqueueing errored packet 68857 at time 2152
Reenqueueing errored packet 65741 at time 2158
Additional hops: 3454
Set signal latency stall time: 4
Reenqueueing errored packet 63202 at time 2161
Reenqueueing errored packet 63317 at time 2163
Additional hops: 3465
Set signal latency stall time: 22
Reenqueueing errored packet 75417 at time 2165
Additional hops: 3472
Set signal latency stall time: 14
Additional hops: 3480
Set signal latency stall time: 16
Additional hops: 3489
Set signal latency stall time: 18
Additional hops: 3492
Set signal latency stall time: 6
Reenqueueing errored packet 63220 at time 2184
Additional hops: 3497
Set signal latency stall time: 10
Reenqueueing errored packet 64205 at time 2187
Additional hops: 3510
Set signal latency stall time: 26
Reenqueueing errored packet 76188 at time 2188
Additional hops: 3514
Set signal latency stall time: 8
Reenqueueing errored packet 66380 at time 2195
Reenqueueing errored packet 72413 at time 2197
Reenqueueing errored packet 75469 at time 2197
Reenqueueing errored packet 64166 at time 2198
Additional hops: 3521
Set signal latency stall time: 14
Additional hops: 3528
Set signal latency stall time: 14
Additional hops: 3535
Set signal latency stall time: 14
Reenqueueing errored packet 62329 at time 2214
Reenqueueing errored packet 68999 at time 2216
Reenqueueing errored packet 68439 at time 2217
Reenqueueing errored packet 74114 at time 2219
Additional hops: 3544
Set signal latency stall time: 18
Additional hops: 3552
Set signal latency stall time: 16
Reenqueueing errored packet 73416 at time 2241
Additional hops: 3558
Set signal latency stall time: 12
Additional hops: 3566
Set signal latency stall time: 16
Reenqueueing errored packet 72256 at time 2246
Additional hops: 3570
Set signal latency stall time: 8
Additional hops: 3574
Set signal latency stall time: 8
Additional hops: 3579
Set signal latency stall time: 10
Reenqueueing errored packet 75284 at time 2254
Reenqueueing errored packet 77892 at time 2255
Additional hops: 3586
Set signal latency stall time: 14
Reenqueueing errored packet 77891 at time 2257
Reenqueueing errored packet 73315 at time 2258
Additional hops: 3591
Set signal latency stall time: 10
Additional hops: 3597
Set signal latency stall time: 12
Additional hops: 3605
Set signal latency stall time: 16
Reenqueueing errored packet 75593 at time 2263
Additional hops: 3612
Set signal latency stall time: 14
Reenqueueing errored packet 74295 at time 2269
Additional hops: 3622
Set signal latency stall time: 20
Reenqueueing errored packet 70543 at time 2270
Additional hops: 3629
Set signal latency stall time: 14
Reenqueueing errored packet 70104 at time 2272
Additional hops: 3633
Set signal latency stall time: 8
Reenqueueing errored packet 69603 at time 2278
Reenqueueing errored packet 73345 at time 2278
Additional hops: 3640
Set signal latency stall time: 14
Additional hops: 3645
Set signal latency stall time: 10
Additional hops: 3659
Set signal latency stall time: 28
Reenqueueing errored packet 75949 at time 2285
Reenqueueing errored packet 74386 at time 2286
Reenqueueing errored packet 70981 at time 2290
Reenqueueing errored packet 77138 at time 2291
Reenqueueing errored packet 73664 at time 2293
Additional hops: 3670
Set signal latency stall time: 22
Additional hops: 3680
Set signal latency stall time: 20
Additional hops: 3687
Set signal latency stall time: 14
Additional hops: 3694
Set signal latency stall time: 14
Additional hops: 3703
Set signal latency stall time: 18
Reenqueueing errored packet 67759 at time 2312
Additional hops: 3710
Set signal latency stall time: 14
Additional hops: 3722
Set signal latency stall time: 24
Reenqueueing errored packet 68749 at time 2321
Additional hops: 3731
Set signal latency stall time: 18
Reenqueueing errored packet 76198 at time 2322
Reenqueueing errored packet 74198 at time 2323
Additional hops: 3743
Set signal latency stall time: 24
Reenqueueing errored packet 74267 at time 2325
Reenqueueing errored packet 70427 at time 2327
Reenqueueing errored packet 70385 at time 2330
Additional hops: 3751
Set signal latency stall time: 16
Additional hops: 3759
Set signal latency stall time: 16
Reenqueueing errored packet 66518 at time 2340
Reenqueueing errored packet 66791 at time 2344
Additional hops: 3768
Set signal latency stall time: 18
Reenqueueing errored packet 70115 at time 2348
Additional hops: 3775
Set signal latency stall time: 14
Additional hops: 3782
Set signal latency stall time: 14
Additional hops: 3786
Set signal latency stall time: 8
Additional hops: 3796
Set signal latency stall time: 20
Reenqueueing errored packet 70399 at time 2354
Reenqueueing errored packet 71047 at time 2355
Additional hops: 3802
Set signal latency stall time: 12
Additional hops: 3810
Set signal latency stall time: 16
Reenqueueing errored packet 82017 at time 2360
Additional hops: 3818
Set signal latency stall time: 16
Reenqueueing errored packet 70061 at time 2365
Reenqueueing errored packet 74756 at time 2366
Reenqueueing errored packet 73789 at time 2366
Additional hops: 3822
Set signal latency stall time: 8
Reenqueueing errored packet 73741 at time 2370
Reenqueueing errored packet 77428 at time 2374
Reenqueueing errored packet 66420 at time 2374
Reenqueueing errored packet 82530 at time 2375
Additional hops: 3828
Set signal latency stall time: 12
Reenqueueing errored packet 73504 at time 2381
Additional hops: 3835
Set signal latency stall time: 14
Additional hops: 3846
Set signal latency stall time: 22
Reenqueueing errored packet 72863 at time 2391
Additional hops: 3858
Set signal latency stall time: 24
Additional hops: 3868
Set signal latency stall time: 20
Additional hops: 3876
Set signal latency stall time: 16
Additional hops: 3879
Set signal latency stall time: 6
Additional hops: 3880
Set signal latency stall time: 2
Reenqueueing errored packet 72636 at time 2397
Additional hops: 3883
Set signal latency stall time: 6
Reenqueueing errored packet 84005 at time 2399
Additional hops: 3893
Set signal latency stall time: 20
Reenqueueing errored packet 83718 at time 2402
Additional hops: 3899
Set signal latency stall time: 12
Reenqueueing errored packet 83831 at time 2405
Additional hops: 3904
Set signal latency stall time: 10
Reenqueueing errored packet 69324 at time 2409
Reenqueueing errored packet 66070 at time 2410
Additional hops: 3907
Set signal latency stall time: 6
Reenqueueing errored packet 72174 at time 2412
Reenqueueing errored packet 74400 at time 2415
Additional hops: 3915
Set signal latency stall time: 16
Additional hops: 3918
Set signal latency stall time: 6
Additional hops: 3923
Set signal latency stall time: 10
Reenqueueing errored packet 81523 at time 2416
Reenqueueing errored packet 71114 at time 2416
Reenqueueing errored packet 84272 at time 2418
Additional hops: 3932
Set signal latency stall time: 18
Additional hops: 3937
Set signal latency stall time: 10
Reenqueueing errored packet 71771 at time 2421
Additional hops: 3945
Set signal latency stall time: 16
Reenqueueing errored packet 82207 at time 2422
Additional hops: 3956
Set signal latency stall time: 22
Reenqueueing errored packet 83697 at time 2426
Reenqueueing errored packet 78434 at time 2430
Reenqueueing errored packet 72534 at time 2432
Reenqueueing errored packet 69167 at time 2437
Reenqueueing errored packet 78015 at time 2438
Additional hops: 3961
Set signal latency stall time: 10
Additional hops: 3971
Set signal latency stall time: 20
Reenqueueing errored packet 69305 at time 2448
Additional hops: 3979
Set signal latency stall time: 16
Additional hops: 3985
Set signal latency stall time: 12
Reenqueueing errored packet 85072 at time 2453
Additional hops: 3988
Set signal latency stall time: 6
Reenqueueing errored packet 83472 at time 2462
Reenqueueing errored packet 76844 at time 2465
Additional hops: 4012
Set signal latency stall time: 48
Reenqueueing errored packet 75105 at time 2466
Reenqueueing errored packet 86105 at time 2468
Additional hops: 4020
Set signal latency stall time: 16
Additional hops: 4028
Set signal latency stall time: 16
Additional hops: 4037
Set signal latency stall time: 18
Additional hops: 4042
Set signal latency stall time: 10
Additional hops: 4050
Set signal latency stall time: 16
Additional hops: 4057
Set signal latency stall time: 14
Additional hops: 4063
Set signal latency stall time: 12
Additional hops: 4071
Set signal latency stall time: 16
Reenqueueing errored packet 75181 at time 2494
Additional hops: 4079
Set signal latency stall time: 16
Reenqueueing errored packet 81899 at time 2495
Reenqueueing errored packet 72439 at time 2495
Additional hops: 4090
Set signal latency stall time: 22
Reenqueueing errored packet 82258 at time 2501
Reenqueueing errored packet 85889 at time 2501
Reenqueueing errored packet 78752 at time 2503
Reenqueueing errored packet 80616 at time 2503
Reenqueueing errored packet 75223 at time 2509
Additional hops: 4094
Set signal latency stall time: 8
Reenqueueing errored packet 79931 at time 2511
Reenqueueing errored packet 56845 at time 2514
Reenqueueing errored packet 73099 at time 2518
Reenqueueing errored packet 83383 at time 2519
Additional hops: 4101
Set signal latency stall time: 14
Additional hops: 4111
Set signal latency stall time: 20
Additional hops: 4120
Set signal latency stall time: 18
Additional hops: 4123
Set signal latency stall time: 6
Additional hops: 4130
Set signal latency stall time: 14
Additional hops: 4138
Set signal latency stall time: 16
Additional hops: 4145
Set signal latency stall time: 14
Additional hops: 4154
Set signal latency stall time: 18
Additional hops: 4163
Set signal latency stall time: 18
Reenqueueing errored packet 78291 at time 2535
Reenqueueing errored packet 87428 at time 2537
Additional hops: 4169
Set signal latency stall time: 12
Reenqueueing errored packet 73050 at time 2543
Reenqueueing errored packet 80902 at time 2544
Additional hops: 4179
Set signal latency stall time: 20
Reenqueueing errored packet 80594 at time 2546
Reenqueueing errored packet 77221 at time 2546
Additional hops: 4187
Set signal latency stall time: 16
Additional hops: 4194
Set signal latency stall time: 14
Reenqueueing errored packet 73267 at time 2548
Reenqueueing errored packet 74917 at time 2550
Reenqueueing errored packet 78003 at time 2553
Reenqueueing errored packet 82716 at time 2553
Additional hops: 4201
Set signal latency stall time: 14
Additional hops: 4210
Set signal latency stall time: 18
Reenqueueing errored packet 79878 at time 2562
Reenqueueing errored packet 78607 at time 2563
Reenqueueing errored packet 77475 at time 2565
Additional hops: 4216
Set signal latency stall time: 12
Additional hops: 4227
Set signal latency stall time: 22
Additional hops: 4233
Set signal latency stall time: 12
Reenqueueing errored packet 78189 at time 2575
Additional hops: 4238
Set signal latency stall time: 10
Additional hops: 4245
Set signal latency stall time: 14
Reenqueueing errored packet 83293 at time 2578
Additional hops: 4249
Set signal latency stall time: 8
Reenqueueing errored packet 80266 at time 2580
Additional hops: 4257
Set signal latency stall time: 16
Additional hops: 4269
Set signal latency stall time: 24
Reenqueueing errored packet 80142 at time 2586
Reenqueueing errored packet 83448 at time 2586
Reenqueueing errored packet 83359 at time 2587
Reenqueueing errored packet 81310 at time 2590
Additional hops: 4274
Set signal latency stall time: 10
Reenqueueing errored packet 77109 at time 2591
Additional hops: 4282
Set signal latency stall time: 16
Additional hops: 4286
Set signal latency stall time: 8
Additional hops: 4290
Set signal latency stall time: 8
Reenqueueing errored packet 90253 at time 2601
Reenqueueing errored packet 87003 at time 2601
Additional hops: 4301
Set signal latency stall time: 22
Additional hops: 4312
Set signal latency stall time: 22
Reenqueueing errored packet 90287 at time 2606
Reenqueueing errored packet 90706 at time 2607
Reenqueueing errored packet 75415 at time 2609
Additional hops: 4318
Set signal latency stall time: 12
Reenqueueing errored packet 86148 at time 2611
Additional hops: 4325
Set signal latency stall time: 14
Reenqueueing errored packet 90928 at time 2623
Reenqueueing errored packet 81777 at time 2626
Reenqueueing errored packet 77991 at time 2626
Additional hops: 4329
Set signal latency stall time: 8
Reenqueueing errored packet 77907 at time 2627
Additional hops: 4335
Set signal latency stall time: 12
Additional hops: 4340
Set signal latency stall time: 10
Additional hops: 4346
Set signal latency stall time: 12
Reenqueueing errored packet 91431 at time 2635
Additional hops: 4353
Set signal latency stall time: 14
Reenqueueing errored packet 79657 at time 2641
Reenqueueing errored packet 83753 at time 2642
Additional hops: 4357
Set signal latency stall time: 8
Reenqueueing errored packet 87238 at time 2645
Reenqueueing errored packet 85946 at time 2651
Reenqueueing errored packet 90609 at time 2653
Additional hops: 4366
Set signal latency stall time: 18
Additional hops: 4375
Set signal latency stall time: 18
Additional hops: 4381
Set signal latency stall time: 12
Additional hops: 4394
Set signal latency stall time: 26
Additional hops: 4402
Set signal latency stall time: 16
Reenqueueing errored packet 89246 at time 2673
Reenqueueing errored packet 85947 at time 2674
Additional hops: 4413
Set signal latency stall time: 22
Reenqueueing errored packet 81380 at time 2676
Reenqueueing errored packet 87871 at time 2680
Additional hops: 4422
Set signal latency stall time: 18
Reenqueueing errored packet 79738 at time 2687
Additional hops: 4426
Set signal latency stall time: 8
Reenqueueing errored packet 77143 at time 2697
Reenqueueing errored packet 93972 at time 2698
Reenqueueing errored packet 83052 at time 2702
Additional hops: 4438
Set signal latency stall time: 24
Additional hops: 4444
Set signal latency stall time: 12
Additional hops: 4450
Set signal latency stall time: 12
Additional hops: 4476
Set signal latency stall time: 52
Additional hops: 4484
Set signal latency stall time: 16
Additional hops: 4489
Set signal latency stall time: 10
Reenqueueing errored packet 89269 at time 2728
Additional hops: 4500
Set signal latency stall time: 22
Additional hops: 4501
Set signal latency stall time: 2
Additional hops: 4509
Set signal latency stall time: 16
Reenqueueing errored packet 88168 at time 2736
Reenqueueing errored packet 95993 at time 2737
Reenqueueing errored packet 88360 at time 2737
Reenqueueing errored packet 81946 at time 2739
Reenqueueing errored packet 84633 at time 2743
Additional hops: 4516
Set signal latency stall time: 14
Reenqueueing errored packet 89778 at time 2752
Reenqueueing errored packet 78388 at time 2753
Additional hops: 4525
Set signal latency stall time: 18
Additional hops: 4530
Set signal latency stall time: 10
Additional hops: 4533
Set signal latency stall time: 6
Additional hops: 4539
Set signal latency stall time: 12
Additional hops: 4549
Set signal latency stall time: 20
Reenqueueing errored packet 85551 at time 2763
Reenqueueing errored packet 96496 at time 2764
Additional hops: 4559
Set signal latency stall time: 20
Additional hops: 4562
Set signal latency stall time: 6
Reenqueueing errored packet 85262 at time 2768
Additional hops: 4570
Set signal latency stall time: 16
Reenqueueing errored packet 88823 at time 2771
Reenqueueing errored packet 96872 at time 2773
Reenqueueing errored packet 82825 at time 2773
Reenqueueing errored packet 62329 at time 2776
Reenqueueing errored packet 84861 at time 2782
Additional hops: 4583
Set signal latency stall time: 26
Additional hops: 4589
Set signal latency stall time: 12
Reenqueueing errored packet 83066 at time 2786
Reenqueueing errored packet 86380 at time 2786
Additional hops: 4598
Set signal latency stall time: 18
Reenqueueing errored packet 90323 at time 2796
Additional hops: 4608
Set signal latency stall time: 20
Additional hops: 4616
Set signal latency stall time: 16
Reenqueueing errored packet 86116 at time 2807
Reenqueueing errored packet 79701 at time 2810
Additional hops: 4626
Set signal latency stall time: 20
Additional hops: 4632
Set signal latency stall time: 12
Reenqueueing errored packet 83191 at time 2816
Additional hops: 4640
Set signal latency stall time: 16
Additional hops: 4647
Set signal latency stall time: 14
Reenqueueing errored packet 81632 at time 2818
Additional hops: 4654
Set signal latency stall time: 14
Additional hops: 4665
Set signal latency stall time: 22
Additional hops: 4671
Set signal latency stall time: 12
Reenqueueing errored packet 91095 at time 2828
Reenqueueing errored packet 90939 at time 2832
Reenqueueing errored packet 87508 at time 2832
Reenqueueing errored packet 86251 at time 2833
Reenqueueing errored packet 88274 at time 2838
Reenqueueing errored packet 93857 at time 2838
Additional hops: 4676
Set signal latency stall time: 10
Additional hops: 4685
Set signal latency stall time: 18
Additional hops: 4694
Set signal latency stall time: 18
Reenqueueing errored packet 82884 at time 2848
Reenqueueing errored packet 92293 at time 2849
Additional hops: 4697
Set signal latency stall time: 6
Additional hops: 4700
Set signal latency stall time: 6
Additional hops: 4713
Set signal latency stall time: 26
Additional hops: 4717
Set signal latency stall time: 8
Reenqueueing errored packet 99918 at time 2858
Additional hops: 4737
Set signal latency stall time: 40
Reenqueueing errored packet 91851 at time 2860
Additional hops: 4742
Set signal latency stall time: 10
Additional hops: 4748
Set signal latency stall time: 12
Reenqueueing errored packet 100020 at time 2862
Reenqueueing errored packet 95050 at time 2864
Reenqueueing errored packet 95978 at time 2865
Additional hops: 4758
Set signal latency stall time: 20
Additional hops: 4763
Set signal latency stall time: 10
Reenqueueing errored packet 99940 at time 2872
Reenqueueing errored packet 87925 at time 2874
Reenqueueing errored packet 89761 at time 2880
Additional hops: 4772
Set signal latency stall time: 18
Reenqueueing errored packet 80780 at time 2883
Additional hops: 4781
Set signal latency stall time: 18
Reenqueueing errored packet 86718 at time 2888
Additional hops: 4784
Set signal latency stall time: 6
Additional hops: 4792
Set signal latency stall time: 16
Additional hops: 4799
Set signal latency stall time: 14
Reenqueueing errored packet 101164 at time 2898
Reenqueueing errored packet 87853 at time 2899
Reenqueueing errored packet 71771 at time 2899
Additional hops: 4809
Set signal latency stall time: 20
Additional hops: 4819
Set signal latency stall time: 20
Reenqueueing errored packet 84470 at time 2906
Reenqueueing errored packet 95384 at time 2912
Reenqueueing errored packet 95161 at time 2912
Additional hops: 4826
Set signal latency stall time: 14
Additional hops: 4833
Set signal latency stall time: 14
Reenqueueing errored packet 86047 at time 2921
Reenqueueing errored packet 88160 at time 2922
Additional hops: 4840
Set signal latency stall time: 14
Reenqueueing errored packet 91779 at time 2930
Reenqueueing errored packet 92481 at time 2935
Additional hops: 4849
Set signal latency stall time: 18
Reenqueueing errored packet 94369 at time 2941
Additional hops: 4861
Set signal latency stall time: 24
Additional hops: 4867
Set signal latency stall time: 12
Additional hops: 4877
Set signal latency stall time: 20
Additional hops: 4888
Set signal latency stall time: 22
Additional hops: 4900
Set signal latency stall time: 24
Additional hops: 4904
Set signal latency stall time: 8
Additional hops: 4909
Set signal latency stall time: 10
Additional hops: 4914
Set signal latency stall time: 10
Additional hops: 4921
Set signal latency stall time: 14
Reenqueueing errored packet 88036 at time 2955
Reenqueueing errored packet 98349 at time 2956
Additional hops: 4925
Set signal latency stall time: 8
Additional hops: 4930
Set signal latency stall time: 10
Additional hops: 4939
Set signal latency stall time: 18
Reenqueueing errored packet 99263 at time 2960
Additional hops: 4946
Set signal latency stall time: 14
Additional hops: 4952
Set signal latency stall time: 12
Reenqueueing errored packet 95759 at time 2963
Additional hops: 4955
Set signal latency stall time: 6
Reenqueueing errored packet 97616 at time 2965
Reenqueueing errored packet 95502 at time 2965
Reenqueueing errored packet 95506 at time 2967
Reenqueueing errored packet 83244 at time 2967
Reenqueueing errored packet 83722 at time 2968
Additional hops: 4961
Set signal latency stall time: 12
Reenqueueing errored packet 97076 at time 2969
Reenqueueing errored packet 103781 at time 2970
Additional hops: 4972
Set signal latency stall time: 22
Additional hops: 4975
Set signal latency stall time: 6
Reenqueueing errored packet 85659 at time 2973
Reenqueueing errored packet 99039 at time 2975
Reenqueueing errored packet 96466 at time 2976
Reenqueueing errored packet 89792 at time 2976
Reenqueueing errored packet 87299 at time 2976
Additional hops: 4981
Set signal latency stall time: 12
Reenqueueing errored packet 102993 at time 2978
Reenqueueing errored packet 88487 at time 2981
Additional hops: 4984
Set signal latency stall time: 6
Additional hops: 4989
Set signal latency stall time: 10
Additional hops: 5001
Set signal latency stall time: 24
Reenqueueing errored packet 94945 at time 2989
Reenqueueing errored packet 97856 at time 2990
Reenqueueing errored packet 89133 at time 2993
Reenqueueing errored packet 99559 at time 2998
Additional hops: 5004
Set signal latency stall time: 6
Additional hops: 5017
Set signal latency stall time: 26
Additional hops: 5027
Set signal latency stall time: 20
Reenqueueing errored packet 105155 at time 3007
Additional hops: 5039
Set signal latency stall time: 24
Additional hops: 5047
Set signal latency stall time: 16
Additional hops: 5051
Set signal latency stall time: 8
Reenqueueing errored packet 89325 at time 3012
Additional hops: 5060
Set signal latency stall time: 18
Additional hops: 5070
Set signal latency stall time: 20
Additional hops: 5075
Set signal latency stall time: 10
Reenqueueing errored packet 98612 at time 3019
Additional hops: 5085
Set signal latency stall time: 20
Additional hops: 5095
Set signal latency stall time: 20
Reenqueueing errored packet 88672 at time 3024
Additional hops: 5099
Set signal latency stall time: 8
Reenqueueing errored packet 87656 at time 3027
Reenqueueing errored packet 89815 at time 3027
Reenqueueing errored packet 105556 at time 3029
Reenqueueing errored packet 85494 at time 3032
Reenqueueing errored packet 93230 at time 3033
Reenqueueing errored packet 102002 at time 3033
Additional hops: 5109
Set signal latency stall time: 20
Additional hops: 5115
Set signal latency stall time: 12
Additional hops: 5125
Set signal latency stall time: 20
Reenqueueing errored packet 91979 at time 3037
Additional hops: 5133
Set signal latency stall time: 16
Reenqueueing errored packet 89137 at time 3042
Reenqueueing errored packet 96275 at time 3044
Reenqueueing errored packet 102683 at time 3046
Additional hops: 5135
Set signal latency stall time: 4
Additional hops: 5142
Set signal latency stall time: 14
Reenqueueing errored packet 104873 at time 3053
Additional hops: 5151
Set signal latency stall time: 18
Reenqueueing errored packet 90886 at time 3054
Reenqueueing errored packet 87837 at time 3055
Reenqueueing errored packet 99215 at time 3056
Additional hops: 5154
Set signal latency stall time: 6
Additional hops: 5157
Set signal latency stall time: 6
Additional hops: 5160
Set signal latency stall time: 6
Reenqueueing errored packet 104148 at time 3063
Reenqueueing errored packet 106984 at time 3065
Reenqueueing errored packet 91505 at time 3066
Additional hops: 5170
Set signal latency stall time: 20
Reenqueueing errored packet 106761 at time 3067
Additional hops: 5179
Set signal latency stall time: 18
Reenqueueing errored packet 95918 at time 3072
Additional hops: 5188
Set signal latency stall time: 18
Additional hops: 5198
Set signal latency stall time: 20
Additional hops: 5203
Set signal latency stall time: 10
Reenqueueing errored packet 89010 at time 3087
Reenqueueing errored packet 90401 at time 3089
Additional hops: 5210
Set signal latency stall time: 14
Additional hops: 5217
Set signal latency stall time: 14
Additional hops: 5223
Set signal latency stall time: 12
Reenqueueing errored packet 99859 at time 3097
Additional hops: 5227
Set signal latency stall time: 8
Reenqueueing errored packet 97921 at time 3101
Reenqueueing errored packet 90308 at time 3104
Additional hops: 5233
Set signal latency stall time: 12
Reenqueueing errored packet 100716 at time 3106
Reenqueueing errored packet 94470 at time 3107
Reenqueueing errored packet 96129 at time 3108
Reenqueueing errored packet 98066 at time 3109
Additional hops: 5237
Set signal latency stall time: 8
Additional hops: 5239
Set signal latency stall time: 4
Additional hops: 5246
Set signal latency stall time: 14
Reenqueueing errored packet 109112 at time 3117
Reenqueueing errored packet 102742 at time 3117
Additional hops: 5256
Set signal latency stall time: 20
Reenqueueing errored packet 103276 at time 3121
Additional hops: 5264
Set signal latency stall time: 16
Additional hops: 5271
Set signal latency stall time: 14
Additional hops: 5275
Set signal latency stall time: 8
Reenqueueing errored packet 98479 at time 3128
Additional hops: 5279
Set signal latency stall time: 8
Reenqueueing errored packet 99760 at time 3133
Additional hops: 5282
Set signal latency stall time: 6
Reenqueueing errored packet 95706 at time 3138
Reenqueueing errored packet 106517 at time 3139
Reenqueueing errored packet 102794 at time 3139
Reenqueueing errored packet 94094 at time 3139
Additional hops: 5293
Set signal latency stall time: 22
Additional hops: 5300
Set signal latency stall time: 14
Reenqueueing errored packet 104691 at time 3144
Additional hops: 5305
Set signal latency stall time: 10
Additional hops: 5310
Set signal latency stall time: 10
Additional hops: 5313
Set signal latency stall time: 6
Additional hops: 5316
Set signal latency stall time: 6
Additional hops: 5323
Set signal latency stall time: 14
Reenqueueing errored packet 95466 at time 3157
Reenqueueing errored packet 104343 at time 3158
Additional hops: 5331
Set signal latency stall time: 16
Reenqueueing errored packet 110373 at time 3159
Reenqueueing errored packet 110451 at time 3162
Reenqueueing errored packet 98504 at time 3162
Reenqueueing errored packet 90937 at time 3164
Additional hops: 5335
Set signal latency stall time: 8
Reenqueueing errored packet 97710 at time 3170
Reenqueueing errored packet 108925 at time 3175
Reenqueueing errored packet 103795 at time 3175
Additional hops: 5345
Set signal latency stall time: 20
Additional hops: 5354
Set signal latency stall time: 18
Additional hops: 5364
Set signal latency stall time: 20
Additional hops: 5377
Set signal latency stall time: 26
Additional hops: 5384
Set signal latency stall time: 14
Additional hops: 5394
Set signal latency stall time: 20
Reenqueueing errored packet 98336 at time 3208
Reenqueueing errored packet 99749 at time 3209
Additional hops: 5400
Set signal latency stall time: 12
Additional hops: 5409
Set signal latency stall time: 18
Additional hops: 5418
Set signal latency stall time: 18
Reenqueueing errored packet 97747 at time 3220
Additional hops: 5430
Set signal latency stall time: 24
Reenqueueing errored packet 101796 at time 3222
Reenqueueing errored packet 104918 at time 3226
Additional hops: 5438
Set signal latency stall time: 16
Additional hops: 5445
Set signal latency stall time: 14
Reenqueueing errored packet 94003 at time 3228
Additional hops: 5452
Set signal latency stall time: 14
Reenqueueing errored packet 93330 at time 3230
Reenqueueing errored packet 95287 at time 3234
Reenqueueing errored packet 97753 at time 3236
Reenqueueing errored packet 107196 at time 3242
Reenqueueing errored packet 106676 at time 3243
Reenqueueing errored packet 104113 at time 3243
Reenqueueing errored packet 94167 at time 3246
Additional hops: 5459
Set signal latency stall time: 14
Reenqueueing errored packet 103086 at time 3262
Additional hops: 5467
Set signal latency stall time: 16
Additional hops: 5476
Set signal latency stall time: 18
Additional hops: 5483
Set signal latency stall time: 14
Additional hops: 5490
Set signal latency stall time: 14
Additional hops: 5498
Set signal latency stall time: 16
Additional hops: 5502
Set signal latency stall time: 8
Additional hops: 5510
Set signal latency stall time: 16
Reenqueueing errored packet 99433 at time 3281
Additional hops: 5515
Set signal latency stall time: 10
Additional hops: 5521
Set signal latency stall time: 12
Reenqueueing errored packet 105720 at time 3284
Reenqueueing errored packet 110278 at time 3287
Reenqueueing errored packet 105741 at time 3288
Additional hops: 5525
Set signal latency stall time: 8
Reenqueueing errored packet 107831 at time 3291
Reenqueueing errored packet 109829 at time 3292
Reenqueueing errored packet 97206 at time 3293
Reenqueueing errored packet 108144 at time 3296
Reenqueueing errored packet 108678 at time 3297
Reenqueueing errored packet 100851 at time 3297
Additional hops: 5530
Set signal latency stall time: 10
[...]
Set signal latency stall time: 20
Additional hops: 32261
Set signal latency stall time: 22
Reenqueueing errored packet 633116 at time 19176
Additional hops: 32268
Set signal latency stall time: 14
Reenqueueing errored packet 639882 at time 19183
Additional hops: 32279
Set signal latency stall time: 22
Additional hops: 32286
Set signal latency stall time: 14
Reenqueueing errored packet 563034 at time 19184
Additional hops: 32296
Set signal latency stall time: 20
Reenqueueing errored packet 575459 at time 19191
Additional hops: 32301
Set signal latency stall time: 10
Reenqueueing errored packet 632037 at time 19195
Reenqueueing errored packet 543837 at time 19195
Reenqueueing errored packet 551327 at time 19195
Reenqueueing errored packet 554152 at time 19195
Reenqueueing errored packet 622721 at time 19198
Reenqueueing errored packet 613009 at time 19198
Additional hops: 32308
Set signal latency stall time: 14
Reenqueueing errored packet 634680 at time 19202
Additional hops: 32317
Set signal latency stall time: 18
Reenqueueing errored packet 553294 at time 19206
Reenqueueing errored packet 563280 at time 19207
Additional hops: 32322
Set signal latency stall time: 10
Additional hops: 32328
Set signal latency stall time: 12
Reenqueueing errored packet 669019 at time 19215
Additional hops: 32332
Set signal latency stall time: 8
Reenqueueing errored packet 669765 at time 19219
Reenqueueing errored packet 621325 at time 19222
Additional hops: 32337
Set signal latency stall time: 10
Reenqueueing errored packet 644091 at time 19224
Additional hops: 32344
Set signal latency stall time: 14
Reenqueueing errored packet 652816 at time 19226
Additional hops: 32349
Set signal latency stall time: 10
Additional hops: 32358
Set signal latency stall time: 18
Additional hops: 32365
Set signal latency stall time: 14
Reenqueueing errored packet 616095 at time 19243
Additional hops: 32368
Set signal latency stall time: 6
Additional hops: 32370
Set signal latency stall time: 4
Reenqueueing errored packet 671047 at time 19252
Reenqueueing errored packet 654241 at time 19257
Additional hops: 32385
Set signal latency stall time: 30
Additional hops: 32392
Set signal latency stall time: 14
Additional hops: 32402
Set signal latency stall time: 20
Reenqueueing errored packet 635227 at time 19275
Additional hops: 32410
Set signal latency stall time: 16
Additional hops: 32417
Set signal latency stall time: 14
Reenqueueing errored packet 517935 at time 19290
Reenqueueing errored packet 556836 at time 19293
Reenqueueing errored packet 663923 at time 19294
Additional hops: 32426
Set signal latency stall time: 18
Additional hops: 32432
Set signal latency stall time: 12
Additional hops: 32437
Set signal latency stall time: 10
Additional hops: 32445
Set signal latency stall time: 16
Additional hops: 32451
Set signal latency stall time: 12
Reenqueueing errored packet 627734 at time 19313
Reenqueueing errored packet 564078 at time 19314
Additional hops: 32454
Set signal latency stall time: 6
Reenqueueing errored packet 660739 at time 19316
Reenqueueing errored packet 618908 at time 19321
Reenqueueing errored packet 624230 at time 19321
Reenqueueing errored packet 639309 at time 19323
Additional hops: 32462
Set signal latency stall time: 16
Additional hops: 32470
Set signal latency stall time: 16
Additional hops: 32482
Set signal latency stall time: 24
Additional hops: 32486
Set signal latency stall time: 8
Additional hops: 32496
Set signal latency stall time: 20
Additional hops: 32503
Set signal latency stall time: 14
Additional hops: 32516
Set signal latency stall time: 26
Reenqueueing errored packet 621932 at time 19346
Additional hops: 32523
Set signal latency stall time: 14
Additional hops: 32530
Set signal latency stall time: 14
Reenqueueing errored packet 621121 at time 19353
Reenqueueing errored packet 637392 at time 19354
Reenqueueing errored packet 542019 at time 19355
Additional hops: 32534
Set signal latency stall time: 8
Additional hops: 32539
Set signal latency stall time: 10
Reenqueueing errored packet 638628 at time 19363
Additional hops: 32545
Set signal latency stall time: 12
Reenqueueing errored packet 657829 at time 19367
Reenqueueing errored packet 640065 at time 19368
Additional hops: 32547
Set signal latency stall time: 4
Reenqueueing errored packet 658225 at time 19373
Additional hops: 32553
Set signal latency stall time: 12
Reenqueueing errored packet 675947 at time 19374
Reenqueueing errored packet 576353 at time 19376
Additional hops: 32558
Set signal latency stall time: 10
Additional hops: 32567
Set signal latency stall time: 18
Additional hops: 32573
Set signal latency stall time: 12
Additional hops: 32581
Set signal latency stall time: 16
Additional hops: 32584
Set signal latency stall time: 6
Reenqueueing errored packet 639995 at time 19386
Additional hops: 32589
Set signal latency stall time: 10
Reenqueueing errored packet 587505 at time 19388
Additional hops: 32597
Set signal latency stall time: 16
Reenqueueing errored packet 666717 at time 19396
Reenqueueing errored packet 607426 at time 19397
Reenqueueing errored packet 577893 at time 19401
Reenqueueing errored packet 625434 at time 19401
Additional hops: 32605
Set signal latency stall time: 16
Additional hops: 32612
Set signal latency stall time: 14
Additional hops: 32621
Set signal latency stall time: 18
Reenqueueing errored packet 580012 at time 19418
Reenqueueing errored packet 642428 at time 19419
Additional hops: 32625
Set signal latency stall time: 8
Additional hops: 32636
Set signal latency stall time: 22
Reenqueueing errored packet 677119 at time 19429
Additional hops: 32648
Set signal latency stall time: 24
Reenqueueing errored packet 593918 at time 19434
Reenqueueing errored packet 574074 at time 19445
Additional hops: 32658
Set signal latency stall time: 20
Additional hops: 32669
Set signal latency stall time: 22
Additional hops: 32678
Set signal latency stall time: 18
Additional hops: 32689
Set signal latency stall time: 22
Reenqueueing errored packet 568824 at time 19454
Additional hops: 32699
Set signal latency stall time: 20
Additional hops: 32707
Set signal latency stall time: 16
Reenqueueing errored packet 589290 at time 19468
Reenqueueing errored packet 538883 at time 19471
Reenqueueing errored packet 564190 at time 19476
Additional hops: 32718
Set signal latency stall time: 22
Additional hops: 32727
Set signal latency stall time: 18
Additional hops: 32729
Set signal latency stall time: 4
Reenqueueing errored packet 643132 at time 19481
Reenqueueing errored packet 679472 at time 19482
Additional hops: 32737
Set signal latency stall time: 16
Additional hops: 32742
Set signal latency stall time: 10
Additional hops: 32749
Set signal latency stall time: 14
Additional hops: 32759
Set signal latency stall time: 20
Additional hops: 32764
Set signal latency stall time: 10
Additional hops: 32769
Set signal latency stall time: 10
Reenqueueing errored packet 620665 at time 19496
Reenqueueing errored packet 679218 at time 19498
Reenqueueing errored packet 627256 at time 19499
Reenqueueing errored packet 573816 at time 19502
Reenqueueing errored packet 644887 at time 19503
Reenqueueing errored packet 572132 at time 19505
Reenqueueing errored packet 654798 at time 19506
Additional hops: 32773
Set signal latency stall time: 8
Reenqueueing errored packet 561103 at time 19513
Reenqueueing errored packet 665629 at time 19521
Additional hops: 32778
Set signal latency stall time: 10
Additional hops: 32787
Set signal latency stall time: 18
Reenqueueing errored packet 651055 at time 19538
Additional hops: 32796
Set signal latency stall time: 18
Additional hops: 32799
Set signal latency stall time: 6
Additional hops: 32804
Set signal latency stall time: 10
Reenqueueing errored packet 681426 at time 19545
Additional hops: 32814
Set signal latency stall time: 20
Reenqueueing errored packet 594318 at time 19550
Reenqueueing errored packet 647253 at time 19553
Reenqueueing errored packet 618093 at time 19557
Additional hops: 32829
Set signal latency stall time: 30
Additional hops: 32834
Set signal latency stall time: 10
Additional hops: 32839
Set signal latency stall time: 10
Reenqueueing errored packet 656431 at time 19581
Reenqueueing errored packet 611992 at time 19588
Additional hops: 32844
Set signal latency stall time: 10
Additional hops: 32850
Set signal latency stall time: 12
Reenqueueing errored packet 562979 at time 19597
Additional hops: 32856
Set signal latency stall time: 12
Reenqueueing errored packet 647702 at time 19599
Additional hops: 32868
Set signal latency stall time: 24
Additional hops: 32874
Set signal latency stall time: 12
Additional hops: 32884
Set signal latency stall time: 20
Reenqueueing errored packet 632438 at time 19604
Additional hops: 32892
Set signal latency stall time: 16
Additional hops: 32900
Set signal latency stall time: 16
Additional hops: 32903
Set signal latency stall time: 6
Additional hops: 32911
Set signal latency stall time: 16
Reenqueueing errored packet 654776 at time 19610
Reenqueueing errored packet 683788 at time 19613
Reenqueueing errored packet 665803 at time 19614
Additional hops: 32918
Set signal latency stall time: 14
Additional hops: 32924
Set signal latency stall time: 12
Reenqueueing errored packet 589995 at time 19622
Additional hops: 32929
Set signal latency stall time: 10
Reenqueueing errored packet 567412 at time 19623
Reenqueueing errored packet 610873 at time 19624
Reenqueueing errored packet 635401 at time 19625
Additional hops: 32938
Set signal latency stall time: 18
Reenqueueing errored packet 660052 at time 19629
Additional hops: 32943
Set signal latency stall time: 10
Reenqueueing errored packet 683736 at time 19633
Reenqueueing errored packet 648500 at time 19634
Reenqueueing errored packet 674179 at time 19641
Additional hops: 32957
Set signal latency stall time: 28
Reenqueueing errored packet 552918 at time 19646
Additional hops: 32969
Set signal latency stall time: 24
Additional hops: 32978
Set signal latency stall time: 18
Additional hops: 32983
Set signal latency stall time: 10
Additional hops: 32993
Set signal latency stall time: 20
Additional hops: 33005
Set signal latency stall time: 24
Additional hops: 33010
Set signal latency stall time: 10
Reenqueueing errored packet 641232 at time 19663
Additional hops: 33016
Set signal latency stall time: 12
Reenqueueing errored packet 640006 at time 19669
Reenqueueing errored packet 685302 at time 19671
Additional hops: 33026
Set signal latency stall time: 20
Reenqueueing errored packet 633423 at time 19672
Reenqueueing errored packet 542365 at time 19673
Reenqueueing errored packet 588287 at time 19674
Additional hops: 33031
Set signal latency stall time: 10
Additional hops: 33037
Set signal latency stall time: 12
Reenqueueing errored packet 668144 at time 19679
Reenqueueing errored packet 631223 at time 19688
Reenqueueing errored packet 668723 at time 19691
Reenqueueing errored packet 632861 at time 19692
Additional hops: 33045
Set signal latency stall time: 16
Additional hops: 33051
Set signal latency stall time: 12
Additional hops: 33060
Set signal latency stall time: 18
Additional hops: 33070
Set signal latency stall time: 20
Additional hops: 33081
Set signal latency stall time: 22
Reenqueueing errored packet 635171 at time 19709
Reenqueueing errored packet 606502 at time 19710
Additional hops: 33085
Set signal latency stall time: 8
Additional hops: 33097
Set signal latency stall time: 24
Additional hops: 33102
Set signal latency stall time: 10
Additional hops: 33112
Set signal latency stall time: 20
Reenqueueing errored packet 686537 at time 19720
Reenqueueing errored packet 576370 at time 19722
Additional hops: 33119
Set signal latency stall time: 14
Additional hops: 33127
Set signal latency stall time: 16
Reenqueueing errored packet 579915 at time 19726
Reenqueueing errored packet 610168 at time 19728
Reenqueueing errored packet 628220 at time 19730
Reenqueueing errored packet 659698 at time 19737
Additional hops: 33136
Set signal latency stall time: 18
Reenqueueing errored packet 582521 at time 19738
Additional hops: 33147
Set signal latency stall time: 22
Reenqueueing errored packet 584139 at time 19740
Reenqueueing errored packet 588394 at time 19740
Additional hops: 33154
Set signal latency stall time: 14
Additional hops: 33160
Set signal latency stall time: 12
Additional hops: 33171
Set signal latency stall time: 22
Additional hops: 33178
Set signal latency stall time: 14
Additional hops: 33186
Set signal latency stall time: 16
Reenqueueing errored packet 576542 at time 19756
Reenqueueing errored packet 571368 at time 19756
Reenqueueing errored packet 654093 at time 19760
Additional hops: 33191
Set signal latency stall time: 10
Reenqueueing errored packet 653900 at time 19765
Additional hops: 33199
Set signal latency stall time: 16
Additional hops: 33209
Set signal latency stall time: 20
Reenqueueing errored packet 669953 at time 19772
Reenqueueing errored packet 640572 at time 19772
Reenqueueing errored packet 554386 at time 19773
Additional hops: 33216
Set signal latency stall time: 14
Additional hops: 33219
Set signal latency stall time: 6
Reenqueueing errored packet 681567 at time 19783
Reenqueueing errored packet 663369 at time 19783
Additional hops: 33225
Set signal latency stall time: 12
Additional hops: 33235
Set signal latency stall time: 20
Reenqueueing errored packet 657311 at time 19790
Additional hops: 33239
Set signal latency stall time: 8
Additional hops: 33247
Set signal latency stall time: 16
Additional hops: 33250
Set signal latency stall time: 6
Additional hops: 33257
Set signal latency stall time: 14
Reenqueueing errored packet 689445 at time 19799
Additional hops: 33269
Set signal latency stall time: 24
Additional hops: 33274
Set signal latency stall time: 10
Reenqueueing errored packet 670424 at time 19804
Reenqueueing errored packet 611499 at time 19808
Additional hops: 33282
Set signal latency stall time: 16
Reenqueueing errored packet 665131 at time 19812
Reenqueueing errored packet 609578 at time 19813
Additional hops: 33289
Set signal latency stall time: 14
Additional hops: 33300
Set signal latency stall time: 22
Additional hops: 33313
Set signal latency stall time: 26
Additional hops: 33320
Set signal latency stall time: 14
Additional hops: 33322
Set signal latency stall time: 4
Additional hops: 33328
Set signal latency stall time: 12
Reenqueueing errored packet 574679 at time 19825
Additional hops: 33334
Set signal latency stall time: 12
Reenqueueing errored packet 579724 at time 19827
Reenqueueing errored packet 674260 at time 19829
Reenqueueing errored packet 656201 at time 19829
Additional hops: 33340
Set signal latency stall time: 12
Reenqueueing errored packet 672763 at time 19837
Reenqueueing errored packet 585286 at time 19837
Reenqueueing errored packet 659682 at time 19839
Reenqueueing errored packet 603216 at time 19839
Reenqueueing errored packet 552725 at time 19843
Additional hops: 33345
Set signal latency stall time: 10
Additional hops: 33355
Set signal latency stall time: 20
Additional hops: 33364
Set signal latency stall time: 18
Reenqueueing errored packet 665223 at time 19847
Additional hops: 33371
Set signal latency stall time: 14
Reenqueueing errored packet 691381 at time 19854
Additional hops: 33382
Set signal latency stall time: 22
Additional hops: 33388
Set signal latency stall time: 12
Reenqueueing errored packet 654809 at time 19864
Reenqueueing errored packet 577978 at time 19865
Reenqueueing errored packet 566252 at time 19866
Reenqueueing errored packet 604544 at time 19870
Additional hops: 33394
Set signal latency stall time: 12
Additional hops: 33403
Set signal latency stall time: 18
Additional hops: 33408
Set signal latency stall time: 10
Additional hops: 33418
Set signal latency stall time: 20
Reenqueueing errored packet 639740 at time 19879
Additional hops: 33427
Set signal latency stall time: 18
Additional hops: 33436
Set signal latency stall time: 18
Reenqueueing errored packet 692430 at time 19885
Reenqueueing errored packet 579114 at time 19889
Additional hops: 33444
Set signal latency stall time: 16
Additional hops: 33454
Set signal latency stall time: 20
Additional hops: 33461
Set signal latency stall time: 14
Reenqueueing errored packet 641620 at time 19897
Reenqueueing errored packet 593189 at time 19899
Reenqueueing errored packet 604013 at time 19899
Additional hops: 33469
Set signal latency stall time: 16
Additional hops: 33479
Set signal latency stall time: 20
Additional hops: 33486
Set signal latency stall time: 14
Reenqueueing errored packet 621793 at time 19907
Reenqueueing errored packet 594065 at time 19909
Additional hops: 33495
Set signal latency stall time: 18
Reenqueueing errored packet 666265 at time 19915
Reenqueueing errored packet 681883 at time 19917
Reenqueueing errored packet 663523 at time 19919
Reenqueueing errored packet 586137 at time 19924
Additional hops: 33503
Set signal latency stall time: 16
Additional hops: 33513
Set signal latency stall time: 20
Reenqueueing errored packet 658612 at time 19929
Additional hops: 33518
Set signal latency stall time: 10
Additional hops: 33527
Set signal latency stall time: 18
Additional hops: 33535
Set signal latency stall time: 16
Reenqueueing errored packet 576299 at time 19942
Additional hops: 33541
Set signal latency stall time: 12
Reenqueueing errored packet 669292 at time 19943
Reenqueueing errored packet 650010 at time 19947
Additional hops: 33545
Set signal latency stall time: 8
Reenqueueing errored packet 676829 at time 19955
Reenqueueing errored packet 637109 at time 19956
Additional hops: 33547
Set signal latency stall time: 4
Reenqueueing errored packet 695573 at time 19961
Additional hops: 33551
Set signal latency stall time: 8
Additional hops: 33554
Set signal latency stall time: 6
Additional hops: 33557
Set signal latency stall time: 6
Additional hops: 33562
Set signal latency stall time: 10
Additional hops: 33573
Set signal latency stall time: 22
Additional hops: 33582
Set signal latency stall time: 18
Additional hops: 33591
Set signal latency stall time: 18
Additional hops: 33602
Set signal latency stall time: 22
Reenqueueing errored packet 686823 at time 19977
Reenqueueing errored packet 695885 at time 19978
Reenqueueing errored packet 695784 at time 19978
Reenqueueing errored packet 606525 at time 19983
Additional hops: 33606
Set signal latency stall time: 8
Additional hops: 33612
Set signal latency stall time: 12
Additional hops: 33619
Set signal latency stall time: 14
Additional hops: 33629
Set signal latency stall time: 20
Reenqueueing errored packet 582352 at time 19992
Reenqueueing errored packet 613032 at time 19992
Reenqueueing errored packet 662213 at time 19993
Reenqueueing errored packet 588393 at time 19995
Reenqueueing errored packet 671766 at time 19998
Reenqueueing errored packet 625161 at time 19999
Additional hops: 33635
Set signal latency stall time: 12
Class 0:
Packet latency average = 795.055
	minimum = 5
	maximum = 8306
Network latency average = 786.21
	minimum = 5
	maximum = 4981
Slowest packet = 1289
Flit latency average = 786.21
	minimum = 5
	maximum = 4981
Slowest flit = 528326
Fragmentation average = 0
	minimum = 0
	maximum = 0
Injected packet rate average = 0.548252
	minimum = 0.52465 (at node 54)
	maximum = 0.5606 (at node 60)
Accepted packet rate average = 0.50493
	minimum = 0.49445 (at node 31)
	maximum = 0.5191 (at node 5)
Injected flit rate average = 0.548252
	minimum = 0.52465 (at node 54)
	maximum = 0.5606 (at node 60)
Accepted flit rate average= 0.50493
	minimum = 0.49445 (at node 31)
	maximum = 0.5191 (at node 5)
Injected packet length average = 1
Accepted packet length average = 1
Total in-flight flits = 55588 (0 measured)
latency change    = 0.506013
throughput change = 0.00698426
Average latency for class 0 exceeded 500 cycles. Aborting simulation.
Too many sample periods needed to converge
Simulation unstable, ending ...
Total run time 81.3467
