BEGIN Configuration File: examples/ecc_mesh88_config_1_0.850_packet_3
// $Id$

// Copyright (c) 2007-2015, Trustees of The Leland Stanford Junior University
// All rights reserved.
//
// Redistribution and use in source and binary forms, with or without
// modification, are permitted provided that the following conditions are met:
//
// Redistributions of source code must retain the above copyright notice, this
// list of conditions and the following disclaimer.
// Redistributions in binary form must reproduce the above copyright notice,
// this list of conditions and the following disclaimer in the documentation
// and/or other materials provided with the distribution.
//
// THIS SOFTWARE IS PROVIDED BY THE COPYRIGHT HOLDERS AND CONTRIBUTORS "AS IS"
// AND ANY EXPRESS OR IMPLIED WARRANTIES, INCLUDING, BUT NOT LIMITED TO, THE
// IMPLIED WARRANTIES OF MERCHANTABILITY AND FITNESS FOR A PARTICULAR PURPOSE
// ARE DISCLAIMED. IN NO EVENT SHALL THE COPYRIGHT OWNER OR CONTRIBUTORS BE
// LIABLE FOR ANY DIRECT, INDIRECT, INCIDENTAL, SPECIAL, EXEMPLARY, OR
// CONSEQUENTIAL DAMAGES (INCLUDING, BUT NOT LIMITED TO, PROCUREMENT OF
// SUBSTITUTE GOODS OR SERVICES; LOSS OF USE, DATA, OR PROFITS; OR BUSINESS
// INTERRUPTION) HOWEVER CAUSED AND ON ANY THEORY OF LIABILITY, WHETHER IN
// CONTRACT, STRICT LIABILITY, OR TORT (INCLUDING NEGLIGENCE OR OTHERWISE)
// ARISING IN ANY WAY OUT OF THE USE OF THIS SOFTWARE, EVEN IF ADVISED OF THE
// POSSIBILITY OF SUCH DAMAGE.

// Dragonfly
//




vc_buf_size = 256;


wait_for_tail_credit = 0;

//
// Router architecture
//
vc_allocator = separable_input_first; 
sw_allocator = separable_input_first;
alloc_iters  = 1;

credit_delay   = 2;
routing_delay  = 0;
vc_alloc_delay = 1;
sw_alloc_delay = 1;
st_final_delay = 1;

input_speedup     = 1;
output_speedup    = 1;
internal_speedup  = 2.0;


warmup_periods = 3;
sim_count          = 1;

sample_period  = 10000;  


routing_function = dor;
num_vcs     = 2;

priority = none;
traffic       = uniform; 

injection_rate = 0.85;
packet_size = 1;
injection_rate_uses_flits = 1;

topology = mesh;

k  = 8;
n  = 2;

fer = 3;
ecc = link;

watch_out=-;
//watch_file = watch.txt;

ecc = packet;

stats_out = examples/ecc_mesh88_config_1_0.850_packet_3.m;

END Configuration File: examples/ecc_mesh88_config_1_0.850_packet_3
Additional hops: 5
Set signal latency stall time: 10
Additional hops: 7
Set signal latency stall time: 4
Reenqueueing errored packet 134 at time 33
Additional hops: 10
Set signal latency stall time: 6
Reenqueueing errored packet 1086 at time 34
Additional hops: 16
Set signal latency stall time: 12
Additional hops: 26
Set signal latency stall time: 20
Additional hops: 33
Set signal latency stall time: 14
Reenqueueing errored packet 1208 at time 40
Additional hops: 37
Set signal latency stall time: 8
Additional hops: 46
Set signal latency stall time: 18
Reenqueueing errored packet 434 at time 50
Additional hops: 50
Set signal latency stall time: 8
Additional hops: 55
Set signal latency stall time: 10
Reenqueueing errored packet 1743 at time 54
Reenqueueing errored packet 683 at time 54
Reenqueueing errored packet 1677 at time 59
Reenqueueing errored packet 51 at time 60
Reenqueueing errored packet 1798 at time 62
Additional hops: 57
Set signal latency stall time: 4
Reenqueueing errored packet 248 at time 65
Additional hops: 61
Set signal latency stall time: 8
Reenqueueing errored packet 2988 at time 68
Additional hops: 68
Set signal latency stall time: 14
Reenqueueing errored packet 2193 at time 75
Additional hops: 74
Set signal latency stall time: 12
Additional hops: 78
Set signal latency stall time: 8
Reenqueueing errored packet 1390 at time 83
Additional hops: 82
Set signal latency stall time: 8
Reenqueueing errored packet 3141 at time 87
Reenqueueing errored packet 1512 at time 91
Reenqueueing errored packet 3006 at time 92
Additional hops: 89
Set signal latency stall time: 14
Reenqueueing errored packet 2227 at time 109
Additional hops: 94
Set signal latency stall time: 10
Additional hops: 101
Set signal latency stall time: 14
Additional hops: 107
Set signal latency stall time: 12
Reenqueueing errored packet 3828 at time 135
Additional hops: 119
Set signal latency stall time: 24
Additional hops: 126
Set signal latency stall time: 14
Reenqueueing errored packet 1794 at time 141
Reenqueueing errored packet 3039 at time 146
Additional hops: 131
Set signal latency stall time: 10
Reenqueueing errored packet 3539 at time 153
Additional hops: 141
Set signal latency stall time: 20
Additional hops: 149
Set signal latency stall time: 16
Additional hops: 155
Set signal latency stall time: 12
Additional hops: 160
Set signal latency stall time: 10
Reenqueueing errored packet 4517 at time 160
Reenqueueing errored packet 1961 at time 162
Additional hops: 163
Set signal latency stall time: 6
Additional hops: 173
Set signal latency stall time: 20
Reenqueueing errored packet 6702 at time 169
Reenqueueing errored packet 6429 at time 170
Reenqueueing errored packet 5021 at time 170
Reenqueueing errored packet 4976 at time 172
Additional hops: 182
Set signal latency stall time: 18
Additional hops: 189
Set signal latency stall time: 14
Reenqueueing errored packet 1916 at time 176
Additional hops: 191
Set signal latency stall time: 4
Reenqueueing errored packet 3972 at time 189
Reenqueueing errored packet 8839 at time 190
Reenqueueing errored packet 4335 at time 190
Reenqueueing errored packet 2926 at time 194
Additional hops: 200
Set signal latency stall time: 18
Additional hops: 207
Set signal latency stall time: 14
Additional hops: 213
Set signal latency stall time: 12
Reenqueueing errored packet 5080 at time 217
Additional hops: 215
Set signal latency stall time: 4
Reenqueueing errored packet 11417 at time 222
Additional hops: 219
Set signal latency stall time: 8
Reenqueueing errored packet 5811 at time 225
Reenqueueing errored packet 7057 at time 225
Additional hops: 230
Set signal latency stall time: 22
Reenqueueing errored packet 7056 at time 233
Additional hops: 239
Set signal latency stall time: 18
Additional hops: 245
Set signal latency stall time: 12
Additional hops: 248
Set signal latency stall time: 6
Additional hops: 255
Set signal latency stall time: 14
Reenqueueing errored packet 12561 at time 248
Additional hops: 262
Set signal latency stall time: 14
Reenqueueing errored packet 7059 at time 252
Reenqueueing errored packet 4742 at time 253
Reenqueueing errored packet 3329 at time 253
Additional hops: 266
Set signal latency stall time: 8
Additional hops: 276
Set signal latency stall time: 20
Additional hops: 281
Set signal latency stall time: 10
Additional hops: 287
Set signal latency stall time: 12
Additional hops: 292
Set signal latency stall time: 10
Reenqueueing errored packet 4751 at time 261
Additional hops: 295
Set signal latency stall time: 6
Reenqueueing errored packet 12454 at time 262
Reenqueueing errored packet 9035 at time 265
Reenqueueing errored packet 5832 at time 266
Reenqueueing errored packet 13687 at time 268
Additional hops: 303
Set signal latency stall time: 16
Reenqueueing errored packet 10952 at time 270
Reenqueueing errored packet 7329 at time 270
Additional hops: 309
Set signal latency stall time: 12
Reenqueueing errored packet 4491 at time 275
Additional hops: 314
Set signal latency stall time: 10
Reenqueueing errored packet 8167 at time 284
Additional hops: 320
Set signal latency stall time: 12
Reenqueueing errored packet 6648 at time 286
Reenqueueing errored packet 11120 at time 291
Reenqueueing errored packet 9797 at time 297
Additional hops: 328
Set signal latency stall time: 16
Additional hops: 335
Set signal latency stall time: 14
Additional hops: 343
Set signal latency stall time: 16
Additional hops: 349
Set signal latency stall time: 12
Reenqueueing errored packet 7805 at time 321
Additional hops: 355
Set signal latency stall time: 12
Additional hops: 366
Set signal latency stall time: 22
Reenqueueing errored packet 9177 at time 331
Reenqueueing errored packet 13207 at time 333
Additional hops: 373
Set signal latency stall time: 14
Reenqueueing errored packet 15426 at time 336
Reenqueueing errored packet 10050 at time 336
Additional hops: 382
Set signal latency stall time: 18
Reenqueueing errored packet 11909 at time 348
Reenqueueing errored packet 5585 at time 352
Additional hops: 390
Set signal latency stall time: 16
Additional hops: 395
Set signal latency stall time: 10
Reenqueueing errored packet 7632 at time 365
Additional hops: 405
Set signal latency stall time: 20
Additional hops: 407
Set signal latency stall time: 4
Additional hops: 412
Set signal latency stall time: 10
Additional hops: 419
Set signal latency stall time: 14
Reenqueueing errored packet 19087 at time 373
Reenqueueing errored packet 13690 at time 373
Reenqueueing errored packet 12644 at time 378
Additional hops: 424
Set signal latency stall time: 10
Reenqueueing errored packet 15803 at time 379
Additional hops: 427
Set signal latency stall time: 6
Reenqueueing errored packet 18809 at time 386
Reenqueueing errored packet 11475 at time 387
Additional hops: 432
Set signal latency stall time: 10
Reenqueueing errored packet 13686 at time 389
Reenqueueing errored packet 5351 at time 389
Additional hops: 438
Set signal latency stall time: 12
Reenqueueing errored packet 12288 at time 398
Additional hops: 442
Set signal latency stall time: 8
Reenqueueing errored packet 15723 at time 406
Additional hops: 448
Set signal latency stall time: 12
Additional hops: 454
Set signal latency stall time: 12
Reenqueueing errored packet 15369 at time 410
Additional hops: 457
Set signal latency stall time: 6
Additional hops: 464
Set signal latency stall time: 14
Additional hops: 471
Set signal latency stall time: 14
Additional hops: 477
Set signal latency stall time: 12
Reenqueueing errored packet 12921 at time 419
Reenqueueing errored packet 21793 at time 421
Reenqueueing errored packet 9381 at time 421
Additional hops: 482
Set signal latency stall time: 10
Additional hops: 491
Set signal latency stall time: 18
Reenqueueing errored packet 14316 at time 429
Reenqueueing errored packet 13422 at time 429
Additional hops: 497
Set signal latency stall time: 12
Additional hops: 501
Set signal latency stall time: 8
Additional hops: 504
Set signal latency stall time: 6
Reenqueueing errored packet 14717 at time 431
Reenqueueing errored packet 14317 at time 436
Additional hops: 506
Set signal latency stall time: 4
Reenqueueing errored packet 22801 at time 437
Additional hops: 509
Set signal latency stall time: 6
Reenqueueing errored packet 16733 at time 438
Reenqueueing errored packet 23175 at time 441
Reenqueueing errored packet 12051 at time 442
Additional hops: 517
Set signal latency stall time: 16
Reenqueueing errored packet 16861 at time 444
Reenqueueing errored packet 14618 at time 446
Additional hops: 525
Set signal latency stall time: 16
Additional hops: 533
Set signal latency stall time: 16
Additional hops: 539
Set signal latency stall time: 12
Reenqueueing errored packet 12354 at time 459
Reenqueueing errored packet 14283 at time 463
Additional hops: 547
Set signal latency stall time: 16
Reenqueueing errored packet 9366 at time 468
Additional hops: 551
Set signal latency stall time: 8
Reenqueueing errored packet 11122 at time 472
Reenqueueing errored packet 20087 at time 478
Additional hops: 555
Set signal latency stall time: 8
Reenqueueing errored packet 9803 at time 482
Additional hops: 560
Set signal latency stall time: 10
Additional hops: 567
Set signal latency stall time: 14
Additional hops: 575
Set signal latency stall time: 16
Additional hops: 580
Set signal latency stall time: 10
Reenqueueing errored packet 25349 at time 487
Additional hops: 590
Set signal latency stall time: 20
Additional hops: 598
Set signal latency stall time: 16
Reenqueueing errored packet 21180 at time 493
Reenqueueing errored packet 12039 at time 497
Reenqueueing errored packet 10746 at time 498
Reenqueueing errored packet 17362 at time 502
Additional hops: 602
Set signal latency stall time: 8
Reenqueueing errored packet 11497 at time 504
Additional hops: 610
Set signal latency stall time: 16
Reenqueueing errored packet 11484 at time 508
Additional hops: 616
Set signal latency stall time: 12
Reenqueueing errored packet 14934 at time 512
Additional hops: 625
Set signal latency stall time: 18
Reenqueueing errored packet 13903 at time 521
Reenqueueing errored packet 21661 at time 522
Additional hops: 630
Set signal latency stall time: 10
Additional hops: 635
Set signal latency stall time: 10
Reenqueueing errored packet 7995 at time 539
Reenqueueing errored packet 17915 at time 540
Additional hops: 645
Set signal latency stall time: 20
Reenqueueing errored packet 27342 at time 543
Additional hops: 652
Set signal latency stall time: 14
Additional hops: 656
Set signal latency stall time: 8
Additional hops: 663
Set signal latency stall time: 14
Reenqueueing errored packet 12627 at time 563
Reenqueueing errored packet 17400 at time 568
Reenqueueing errored packet 11853 at time 568
Reenqueueing errored packet 19285 at time 577
Additional hops: 672
Set signal latency stall time: 18
Additional hops: 679
Set signal latency stall time: 14
Additional hops: 686
Set signal latency stall time: 14
Additional hops: 689
Set signal latency stall time: 6
Additional hops: 698
Set signal latency stall time: 18
Additional hops: 701
Set signal latency stall time: 6
Reenqueueing errored packet 18677 at time 593
Additional hops: 711
Set signal latency stall time: 20
Reenqueueing errored packet 13297 at time 596
Reenqueueing errored packet 17785 at time 596
Reenqueueing errored packet 21357 at time 597
Reenqueueing errored packet 24596 at time 598
Additional hops: 720
Set signal latency stall time: 18
Reenqueueing errored packet 10492 at time 606
Additional hops: 729
Set signal latency stall time: 18
Additional hops: 736
Set signal latency stall time: 14
Reenqueueing errored packet 15781 at time 615
Additional hops: 739
Set signal latency stall time: 6
Additional hops: 747
Set signal latency stall time: 16
Reenqueueing errored packet 14663 at time 620
Reenqueueing errored packet 30230 at time 625
Reenqueueing errored packet 22119 at time 627
Reenqueueing errored packet 20607 at time 628
Additional hops: 752
Set signal latency stall time: 10
Additional hops: 761
Set signal latency stall time: 18
Additional hops: 770
Set signal latency stall time: 18
Additional hops: 775
Set signal latency stall time: 10
Additional hops: 780
Set signal latency stall time: 10
Reenqueueing errored packet 23864 at time 636
Reenqueueing errored packet 32978 at time 639
Reenqueueing errored packet 18506 at time 643
Reenqueueing errored packet 24517 at time 644
Reenqueueing errored packet 20383 at time 647
Reenqueueing errored packet 13925 at time 647
Additional hops: 787
Set signal latency stall time: 14
Additional hops: 796
Set signal latency stall time: 18
Additional hops: 800
Set signal latency stall time: 8
Reenqueueing errored packet 32849 at time 662
Reenqueueing errored packet 17395 at time 664
Additional hops: 808
Set signal latency stall time: 16
Additional hops: 816
Set signal latency stall time: 16
Additional hops: 824
Set signal latency stall time: 16
Reenqueueing errored packet 12015 at time 671
Additional hops: 834
Set signal latency stall time: 20
Additional hops: 842
Set signal latency stall time: 16
Reenqueueing errored packet 20598 at time 681
Reenqueueing errored packet 15122 at time 681
Additional hops: 845
Set signal latency stall time: 6
Reenqueueing errored packet 14636 at time 686
Reenqueueing errored packet 23425 at time 689
Reenqueueing errored packet 36514 at time 691
Reenqueueing errored packet 22522 at time 693
Additional hops: 855
Set signal latency stall time: 20
Additional hops: 862
Set signal latency stall time: 14
Additional hops: 864
Set signal latency stall time: 4
Additional hops: 867
Set signal latency stall time: 6
Additional hops: 873
Set signal latency stall time: 12
Reenqueueing errored packet 31897 at time 706
Additional hops: 878
Set signal latency stall time: 10
Reenqueueing errored packet 22034 at time 709
Additional hops: 892
Set signal latency stall time: 28
Reenqueueing errored packet 15914 at time 713
Additional hops: 898
Set signal latency stall time: 12
Reenqueueing errored packet 11375 at time 714
Reenqueueing errored packet 27261 at time 717
Reenqueueing errored packet 28297 at time 718
Additional hops: 905
Set signal latency stall time: 14
Additional hops: 912
Set signal latency stall time: 14
Additional hops: 916
Set signal latency stall time: 8
Additional hops: 921
Set signal latency stall time: 10
Reenqueueing errored packet 16272 at time 726
Reenqueueing errored packet 30031 at time 731
Additional hops: 929
Set signal latency stall time: 16
Additional hops: 938
Set signal latency stall time: 18
Reenqueueing errored packet 22280 at time 734
Reenqueueing errored packet 27329 at time 734
Reenqueueing errored packet 25500 at time 734
Additional hops: 944
Set signal latency stall time: 12
Reenqueueing errored packet 8741 at time 741
Additional hops: 950
Set signal latency stall time: 12
Reenqueueing errored packet 16372 at time 749
Reenqueueing errored packet 16054 at time 751
Reenqueueing errored packet 30090 at time 753
Reenqueueing errored packet 35735 at time 759
Additional hops: 959
Set signal latency stall time: 18
Additional hops: 961
Set signal latency stall time: 4
Additional hops: 966
Set signal latency stall time: 10
Reenqueueing errored packet 41907 at time 785
Reenqueueing errored packet 17718 at time 787
Reenqueueing errored packet 37303 at time 793
Additional hops: 975
Set signal latency stall time: 18
Additional hops: 980
Set signal latency stall time: 10
Additional hops: 987
Set signal latency stall time: 14
Additional hops: 992
Set signal latency stall time: 10
Reenqueueing errored packet 32077 at time 808
Additional hops: 997
Set signal latency stall time: 10
Additional hops: 1006
Set signal latency stall time: 18
Additional hops: 1014
Set signal latency stall time: 16
Reenqueueing errored packet 24582 at time 812
Reenqueueing errored packet 16944 at time 813
Additional hops: 1017
Set signal latency stall time: 6
Reenqueueing errored packet 31051 at time 814
Additional hops: 1021
Set signal latency stall time: 8
Reenqueueing errored packet 42887 at time 820
Reenqueueing errored packet 35516 at time 820
Reenqueueing errored packet 36160 at time 826
Reenqueueing errored packet 23415 at time 827
Reenqueueing errored packet 21234 at time 829
Additional hops: 1027
Set signal latency stall time: 12
Additional hops: 1033
Set signal latency stall time: 12
Additional hops: 1039
Set signal latency stall time: 12
Reenqueueing errored packet 23925 at time 844
Additional hops: 1047
Set signal latency stall time: 16
Additional hops: 1054
Set signal latency stall time: 14
Reenqueueing errored packet 20903 at time 849
Additional hops: 1061
Set signal latency stall time: 14
Additional hops: 1070
Set signal latency stall time: 18
Reenqueueing errored packet 28770 at time 852
Additional hops: 1076
Set signal latency stall time: 12
Reenqueueing errored packet 27383 at time 861
Reenqueueing errored packet 26437 at time 862
Additional hops: 1082
Set signal latency stall time: 12
Additional hops: 1087
Set signal latency stall time: 10
Reenqueueing errored packet 25286 at time 865
Reenqueueing errored packet 27495 at time 865
Additional hops: 1095
Set signal latency stall time: 16
Additional hops: 1101
Set signal latency stall time: 12
Additional hops: 1112
Set signal latency stall time: 22
Reenqueueing errored packet 31233 at time 870
Additional hops: 1121
Set signal latency stall time: 18
Additional hops: 1124
Set signal latency stall time: 6
Reenqueueing errored packet 41641 at time 875
Reenqueueing errored packet 37950 at time 875
Reenqueueing errored packet 30255 at time 878
Reenqueueing errored packet 44240 at time 880
Reenqueueing errored packet 31762 at time 882
Additional hops: 1128
Set signal latency stall time: 8
Reenqueueing errored packet 19885 at time 890
Additional hops: 1134
Set signal latency stall time: 12
Additional hops: 1144
Set signal latency stall time: 20
Reenqueueing errored packet 16400 at time 892
Reenqueueing errored packet 41239 at time 893
Additional hops: 1148
Set signal latency stall time: 8
Additional hops: 1152
Set signal latency stall time: 8
Additional hops: 1161
Set signal latency stall time: 18
Reenqueueing errored packet 32039 at time 903
Reenqueueing errored packet 28798 at time 905
Reenqueueing errored packet 40500 at time 907
Additional hops: 1170
Set signal latency stall time: 18
Additional hops: 1176
Set signal latency stall time: 12
Reenqueueing errored packet 13042 at time 911
Additional hops: 1184
Set signal latency stall time: 16
Additional hops: 1188
Set signal latency stall time: 8
Additional hops: 1194
Set signal latency stall time: 12
Reenqueueing errored packet 18275 at time 919
Reenqueueing errored packet 26415 at time 920
Reenqueueing errored packet 37460 at time 923
Reenqueueing errored packet 15886 at time 926
Reenqueueing errored packet 21171 at time 927
Additional hops: 1204
Set signal latency stall time: 20
Reenqueueing errored packet 30554 at time 928
Additional hops: 1209
Set signal latency stall time: 10
Additional hops: 1214
Set signal latency stall time: 10
Reenqueueing errored packet 33971 at time 941
Reenqueueing errored packet 39646 at time 941
Additional hops: 1224
Set signal latency stall time: 20
Additional hops: 1229
Set signal latency stall time: 10
Reenqueueing errored packet 16129 at time 948
Reenqueueing errored packet 38925 at time 954
Additional hops: 1233
Set signal latency stall time: 8
Additional hops: 1239
Set signal latency stall time: 12
Additional hops: 1245
Set signal latency stall time: 12
Additional hops: 1255
Set signal latency stall time: 20
Reenqueueing errored packet 24058 at time 963
Reenqueueing errored packet 16340 at time 963
Additional hops: 1261
Set signal latency stall time: 12
Reenqueueing errored packet 35054 at time 967
Reenqueueing errored packet 38755 at time 968
Additional hops: 1269
Set signal latency stall time: 16
Additional hops: 1276
Set signal latency stall time: 14
Reenqueueing errored packet 31611 at time 978
Additional hops: 1285
Set signal latency stall time: 18
Reenqueueing errored packet 22265 at time 979
Additional hops: 1291
Set signal latency stall time: 12
Reenqueueing errored packet 20019 at time 987
Reenqueueing errored packet 38422 at time 992
Additional hops: 1301
Set signal latency stall time: 20
Reenqueueing errored packet 21954 at time 997
Reenqueueing errored packet 38922 at time 999
Additional hops: 1312
Set signal latency stall time: 22
Additional hops: 1316
Set signal latency stall time: 8
Additional hops: 1324
Set signal latency stall time: 16
Additional hops: 1335
Set signal latency stall time: 22
Reenqueueing errored packet 18434 at time 1017
Reenqueueing errored packet 42030 at time 1019
Additional hops: 1344
Set signal latency stall time: 18
Additional hops: 1348
Set signal latency stall time: 8
Reenqueueing errored packet 35925 at time 1025
Reenqueueing errored packet 40905 at time 1031
Reenqueueing errored packet 34648 at time 1032
Additional hops: 1357
Set signal latency stall time: 18
Additional hops: 1360
Set signal latency stall time: 6
Reenqueueing errored packet 17319 at time 1038
Reenqueueing errored packet 22316 at time 1039
Reenqueueing errored packet 55715 at time 1044
Additional hops: 1372
Set signal latency stall time: 24
Reenqueueing errored packet 19377 at time 1051
Additional hops: 1384
Set signal latency stall time: 24
Additional hops: 1388
Set signal latency stall time: 8
Additional hops: 1395
Set signal latency stall time: 14
Additional hops: 1401
Set signal latency stall time: 12
Additional hops: 1404
Set signal latency stall time: 6
Reenqueueing errored packet 51772 at time 1066
Additional hops: 1408
Set signal latency stall time: 8
Additional hops: 1413
Set signal latency stall time: 10
Reenqueueing errored packet 52562 at time 1069
Additional hops: 1415
Set signal latency stall time: 4
Reenqueueing errored packet 31896 at time 1071
Reenqueueing errored packet 30905 at time 1072
Reenqueueing errored packet 19502 at time 1073
Reenqueueing errored packet 50718 at time 1074
Reenqueueing errored packet 39158 at time 1075
Additional hops: 1421
Set signal latency stall time: 12
Additional hops: 1427
Set signal latency stall time: 12
Reenqueueing errored packet 31891 at time 1079
Additional hops: 1436
Set signal latency stall time: 18
Reenqueueing errored packet 19601 at time 1080
Additional hops: 1440
Set signal latency stall time: 8
Reenqueueing errored packet 26283 at time 1090
Additional hops: 1443
Set signal latency stall time: 6
Reenqueueing errored packet 42545 at time 1091
Reenqueueing errored packet 52631 at time 1095
Additional hops: 1449
Set signal latency stall time: 12
Additional hops: 1454
Set signal latency stall time: 10
Reenqueueing errored packet 47197 at time 1097
Reenqueueing errored packet 23197 at time 1098
Additional hops: 1459
Set signal latency stall time: 10
Additional hops: 1463
Set signal latency stall time: 8
Reenqueueing errored packet 32006 at time 1107
Reenqueueing errored packet 43424 at time 1109
Additional hops: 1469
Set signal latency stall time: 12
Reenqueueing errored packet 48382 at time 1113
Reenqueueing errored packet 49353 at time 1114
Reenqueueing errored packet 34172 at time 1123
Additional hops: 1473
Set signal latency stall time: 8
Additional hops: 1476
Set signal latency stall time: 6
Reenqueueing errored packet 49578 at time 1148
Additional hops: 1485
Set signal latency stall time: 18
Reenqueueing errored packet 59242 at time 1152
Additional hops: 1491
Set signal latency stall time: 12
Additional hops: 1495
Set signal latency stall time: 8
Additional hops: 1499
Set signal latency stall time: 8
Additional hops: 1509
Set signal latency stall time: 20
Reenqueueing errored packet 47331 at time 1163
Reenqueueing errored packet 28445 at time 1165
Reenqueueing errored packet 24756 at time 1167
Reenqueueing errored packet 48119 at time 1169
Additional hops: 1518
Set signal latency stall time: 18
Additional hops: 1530
Set signal latency stall time: 24
Additional hops: 1543
Set signal latency stall time: 26
Reenqueueing errored packet 20452 at time 1183
Additional hops: 1546
Set signal latency stall time: 6
Reenqueueing errored packet 45029 at time 1189
Additional hops: 1553
Set signal latency stall time: 14
Reenqueueing errored packet 47260 at time 1192
Additional hops: 1564
Set signal latency stall time: 22
Additional hops: 1568
Set signal latency stall time: 8
Reenqueueing errored packet 26095 at time 1199
Additional hops: 1571
Set signal latency stall time: 6
Additional hops: 1580
Set signal latency stall time: 18
Additional hops: 1588
Set signal latency stall time: 16
Reenqueueing errored packet 53841 at time 1204
Reenqueueing errored packet 18830 at time 1205
Reenqueueing errored packet 51589 at time 1206
Reenqueueing errored packet 46985 at time 1206
Additional hops: 1597
Set signal latency stall time: 18
Additional hops: 1602
Set signal latency stall time: 10
Additional hops: 1605
Set signal latency stall time: 6
Additional hops: 1607
Set signal latency stall time: 4
Reenqueueing errored packet 42509 at time 1218
Reenqueueing errored packet 24265 at time 1218
Reenqueueing errored packet 35339 at time 1218
Reenqueueing errored packet 53148 at time 1220
Reenqueueing errored packet 50292 at time 1221
Reenqueueing errored packet 49094 at time 1223
Additional hops: 1613
Set signal latency stall time: 12
Additional hops: 1616
Set signal latency stall time: 6
Additional hops: 1625
Set signal latency stall time: 18
Reenqueueing errored packet 31923 at time 1227
Reenqueueing errored packet 49575 at time 1231
Additional hops: 1632
Set signal latency stall time: 14
Additional hops: 1642
Set signal latency stall time: 20
Reenqueueing errored packet 36425 at time 1237
Additional hops: 1649
Set signal latency stall time: 14
Reenqueueing errored packet 41555 at time 1245
Reenqueueing errored packet 35025 at time 1248
Additional hops: 1655
Set signal latency stall time: 12
Additional hops: 1665
Set signal latency stall time: 20
Additional hops: 1674
Set signal latency stall time: 18
Additional hops: 1681
Set signal latency stall time: 14
Additional hops: 1689
Set signal latency stall time: 16
Reenqueueing errored packet 33906 at time 1257
Reenqueueing errored packet 46998 at time 1259
Reenqueueing errored packet 28953 at time 1261
Reenqueueing errored packet 50362 at time 1266
Reenqueueing errored packet 43884 at time 1269
Reenqueueing errored packet 21020 at time 1270
Reenqueueing errored packet 25000 at time 1270
Additional hops: 1694
Set signal latency stall time: 10
Additional hops: 1700
Set signal latency stall time: 12
Reenqueueing errored packet 38853 at time 1281
Additional hops: 1707
Set signal latency stall time: 14
Additional hops: 1711
Set signal latency stall time: 8
Additional hops: 1720
Set signal latency stall time: 18
Additional hops: 1728
Set signal latency stall time: 16
Additional hops: 1739
Set signal latency stall time: 22
Additional hops: 1747
Set signal latency stall time: 16
Reenqueueing errored packet 60543 at time 1292
Reenqueueing errored packet 63113 at time 1293
Reenqueueing errored packet 34548 at time 1296
Reenqueueing errored packet 39053 at time 1302
Additional hops: 1755
Set signal latency stall time: 16
Reenqueueing errored packet 49019 at time 1303
Reenqueueing errored packet 47046 at time 1304
Additional hops: 1762
Set signal latency stall time: 14
Additional hops: 1770
Set signal latency stall time: 16
Additional hops: 1781
Set signal latency stall time: 22
Reenqueueing errored packet 20701 at time 1309
Additional hops: 1787
Set signal latency stall time: 12
Additional hops: 1796
Set signal latency stall time: 18
Additional hops: 1798
Set signal latency stall time: 4
Additional hops: 1809
Set signal latency stall time: 22
Reenqueueing errored packet 30756 at time 1319
Reenqueueing errored packet 46371 at time 1319
Reenqueueing errored packet 65976 at time 1320
Additional hops: 1814
Set signal latency stall time: 10
Reenqueueing errored packet 54526 at time 1322
Reenqueueing errored packet 29128 at time 1325
Additional hops: 1820
Set signal latency stall time: 12
Additional hops: 1830
Set signal latency stall time: 20
Reenqueueing errored packet 40342 at time 1331
Reenqueueing errored packet 35235 at time 1331
Reenqueueing errored packet 48248 at time 1333
Additional hops: 1834
Set signal latency stall time: 8
Additional hops: 1844
Set signal latency stall time: 20
Reenqueueing errored packet 39701 at time 1338
Reenqueueing errored packet 27316 at time 1339
Additional hops: 1854
Set signal latency stall time: 20
Additional hops: 1860
Set signal latency stall time: 12
Reenqueueing errored packet 45787 at time 1342
Additional hops: 1867
Set signal latency stall time: 14
Additional hops: 1874
Set signal latency stall time: 14
Reenqueueing errored packet 29130 at time 1349
Reenqueueing errored packet 41279 at time 1353
Additional hops: 1885
Set signal latency stall time: 22
Additional hops: 1893
Set signal latency stall time: 16
Reenqueueing errored packet 23770 at time 1355
Reenqueueing errored packet 40386 at time 1357
Additional hops: 1901
Set signal latency stall time: 16
Additional hops: 1909
Set signal latency stall time: 16
Reenqueueing errored packet 54476 at time 1360
Reenqueueing errored packet 39945 at time 1360
Additional hops: 1915
Set signal latency stall time: 12
Additional hops: 1922
Set signal latency stall time: 14
Reenqueueing errored packet 31398 at time 1371
Reenqueueing errored packet 31964 at time 1375
Reenqueueing errored packet 43099 at time 1376
Reenqueueing errored packet 23130 at time 1376
Additional hops: 1925
Set signal latency stall time: 6
Reenqueueing errored packet 68296 at time 1379
Reenqueueing errored packet 73882 at time 1383
Additional hops: 1932
Set signal latency stall time: 14
Reenqueueing errored packet 50833 at time 1385
Additional hops: 1944
Set signal latency stall time: 24
Additional hops: 1949
Set signal latency stall time: 10
Additional hops: 1953
Set signal latency stall time: 8
Additional hops: 1957
Set signal latency stall time: 8
Additional hops: 1963
Set signal latency stall time: 12
Reenqueueing errored packet 29982 at time 1399
Additional hops: 1967
Set signal latency stall time: 8
Reenqueueing errored packet 35221 at time 1401
Reenqueueing errored packet 61384 at time 1401
Additional hops: 1978
Set signal latency stall time: 22
Reenqueueing errored packet 59281 at time 1403
Additional hops: 1987
Set signal latency stall time: 18
Reenqueueing errored packet 67191 at time 1408
Reenqueueing errored packet 55065 at time 1408
Reenqueueing errored packet 23167 at time 1412
Additional hops: 1990
Set signal latency stall time: 6
Reenqueueing errored packet 75299 at time 1423
Reenqueueing errored packet 35197 at time 1424
Reenqueueing errored packet 29560 at time 1424
Additional hops: 1995
Set signal latency stall time: 10
Additional hops: 2000
Set signal latency stall time: 10
Additional hops: 2003
Set signal latency stall time: 6
Reenqueueing errored packet 34319 at time 1435
Reenqueueing errored packet 65231 at time 1437
Reenqueueing errored packet 43088 at time 1440
Additional hops: 2009
Set signal latency stall time: 12
Additional hops: 2012
Set signal latency stall time: 6
Reenqueueing errored packet 78071 at time 1455
Reenqueueing errored packet 49495 at time 1455
Additional hops: 2018
Set signal latency stall time: 12
Additional hops: 2024
Set signal latency stall time: 12
Additional hops: 2027
Set signal latency stall time: 6
Reenqueueing errored packet 61991 at time 1465
Reenqueueing errored packet 54744 at time 1470
Reenqueueing errored packet 33030 at time 1471
Additional hops: 2035
Set signal latency stall time: 16
Additional hops: 2044
Set signal latency stall time: 18
Additional hops: 2053
Set signal latency stall time: 18
Additional hops: 2065
Set signal latency stall time: 24
Reenqueueing errored packet 56720 at time 1492
Additional hops: 2075
Set signal latency stall time: 20
Additional hops: 2086
Set signal latency stall time: 22
Additional hops: 2091
Set signal latency stall time: 10
Reenqueueing errored packet 39396 at time 1499
Reenqueueing errored packet 42736 at time 1502
Additional hops: 2096
Set signal latency stall time: 10
Additional hops: 2103
Set signal latency stall time: 14
Reenqueueing errored packet 62097 at time 1509
Reenqueueing errored packet 31390 at time 1510
Additional hops: 2106
Set signal latency stall time: 6
Reenqueueing errored packet 71054 at time 1514
Reenqueueing errored packet 46562 at time 1514
Additional hops: 2110
Set signal latency stall time: 8
Additional hops: 2114
Set signal latency stall time: 8
Reenqueueing errored packet 33726 at time 1517
Reenqueueing errored packet 81618 at time 1520
Reenqueueing errored packet 43998 at time 1521
Reenqueueing errored packet 47683 at time 1523
Additional hops: 2121
Set signal latency stall time: 14
Reenqueueing errored packet 60710 at time 1525
Additional hops: 2127
Set signal latency stall time: 12
Reenqueueing errored packet 34111 at time 1539
Additional hops: 2131
Set signal latency stall time: 8
Additional hops: 2138
Set signal latency stall time: 14
Reenqueueing errored packet 61079 at time 1546
Additional hops: 2149
Set signal latency stall time: 22
Reenqueueing errored packet 71876 at time 1548
Additional hops: 2154
Set signal latency stall time: 10
Additional hops: 2160
Set signal latency stall time: 12
Reenqueueing errored packet 36124 at time 1557
Additional hops: 2166
Set signal latency stall time: 12
Reenqueueing errored packet 65060 at time 1559
Reenqueueing errored packet 54124 at time 1563
Additional hops: 2168
Set signal latency stall time: 4
Reenqueueing errored packet 34966 at time 1569
Reenqueueing errored packet 41523 at time 1571
Reenqueueing errored packet 83604 at time 1572
Additional hops: 2174
Set signal latency stall time: 12
Additional hops: 2178
Set signal latency stall time: 8
Additional hops: 2180
Set signal latency stall time: 4
Additional hops: 2186
Set signal latency stall time: 12
Additional hops: 2192
Set signal latency stall time: 12
Reenqueueing errored packet 69747 at time 1582
Additional hops: 2196
Set signal latency stall time: 8
Reenqueueing errored packet 77708 at time 1584
Reenqueueing errored packet 38594 at time 1586
Additional hops: 2203
Set signal latency stall time: 14
Reenqueueing errored packet 78136 at time 1591
Additional hops: 2207
Set signal latency stall time: 8
Reenqueueing errored packet 53815 at time 1594
Reenqueueing errored packet 59047 at time 1594
Additional hops: 2214
Set signal latency stall time: 14
Reenqueueing errored packet 79866 at time 1602
Reenqueueing errored packet 50940 at time 1605
Additional hops: 2217
Set signal latency stall time: 6
Reenqueueing errored packet 37633 at time 1610
Additional hops: 2222
Set signal latency stall time: 10
Additional hops: 2231
Set signal latency stall time: 18
Reenqueueing errored packet 65827 at time 1613
Additional hops: 2234
Set signal latency stall time: 6
Reenqueueing errored packet 52863 at time 1622
Additional hops: 2241
Set signal latency stall time: 14
Additional hops: 2249
Set signal latency stall time: 16
Reenqueueing errored packet 70523 at time 1623
Additional hops: 2259
Set signal latency stall time: 20
Additional hops: 2266
Set signal latency stall time: 14
Additional hops: 2278
Set signal latency stall time: 24
Reenqueueing errored packet 58779 at time 1630
Additional hops: 2283
Set signal latency stall time: 10
Additional hops: 2292
Set signal latency stall time: 18
Additional hops: 2294
Set signal latency stall time: 4
Additional hops: 2303
Set signal latency stall time: 18
Reenqueueing errored packet 63913 at time 1637
Additional hops: 2308
Set signal latency stall time: 10
Reenqueueing errored packet 72059 at time 1638
Reenqueueing errored packet 58780 at time 1639
Additional hops: 2313
Set signal latency stall time: 10
Reenqueueing errored packet 75751 at time 1642
Reenqueueing errored packet 62779 at time 1642
Reenqueueing errored packet 49094 at time 1645
Reenqueueing errored packet 60208 at time 1648
Reenqueueing errored packet 37022 at time 1650
Reenqueueing errored packet 62562 at time 1651
Additional hops: 2319
Set signal latency stall time: 12
Reenqueueing errored packet 29921 at time 1652
Reenqueueing errored packet 35971 at time 1655
Additional hops: 2322
Set signal latency stall time: 6
Additional hops: 2326
Set signal latency stall time: 8
Reenqueueing errored packet 76554 at time 1664
Reenqueueing errored packet 83602 at time 1666
Reenqueueing errored packet 65714 at time 1670
Additional hops: 2331
Set signal latency stall time: 10
Reenqueueing errored packet 68063 at time 1681
Additional hops: 2335
Set signal latency stall time: 8
Reenqueueing errored packet 85890 at time 1690
Additional hops: 2345
Set signal latency stall time: 20
Additional hops: 2350
Set signal latency stall time: 10
Additional hops: 2358
Set signal latency stall time: 16
Additional hops: 2366
Set signal latency stall time: 16
Additional hops: 2369
Set signal latency stall time: 6
Additional hops: 2377
Set signal latency stall time: 16
Reenqueueing errored packet 50957 at time 1703
Additional hops: 2383
Set signal latency stall time: 12
Additional hops: 2396
Set signal latency stall time: 26
Additional hops: 2400
Set signal latency stall time: 8
Additional hops: 2410
Set signal latency stall time: 20
Reenqueueing errored packet 84870 at time 1708
Additional hops: 2414
Set signal latency stall time: 8
Reenqueueing errored packet 29064 at time 1711
Additional hops: 2418
Set signal latency stall time: 8
Reenqueueing errored packet 75632 at time 1714
Reenqueueing errored packet 40330 at time 1715
Additional hops: 2426
Set signal latency stall time: 16
Reenqueueing errored packet 61623 at time 1716
Reenqueueing errored packet 49090 at time 1716
Additional hops: 2431
Set signal latency stall time: 10
Additional hops: 2437
Set signal latency stall time: 12
Reenqueueing errored packet 80477 at time 1719
Reenqueueing errored packet 64655 at time 1719
Additional hops: 2443
Set signal latency stall time: 12
Reenqueueing errored packet 80528 at time 1720
Additional hops: 2445
Set signal latency stall time: 4
Additional hops: 2453
Set signal latency stall time: 16
Additional hops: 2462
Set signal latency stall time: 18
Reenqueueing errored packet 91237 at time 1728
Reenqueueing errored packet 69020 at time 1728
Reenqueueing errored packet 57479 at time 1728
Reenqueueing errored packet 58429 at time 1731
Reenqueueing errored packet 80304 at time 1732
Reenqueueing errored packet 40861 at time 1732
Additional hops: 2469
Set signal latency stall time: 14
Additional hops: 2478
Set signal latency stall time: 18
Reenqueueing errored packet 67494 at time 1741
Reenqueueing errored packet 30691 at time 1745
Additional hops: 2483
Set signal latency stall time: 10
Additional hops: 2488
Set signal latency stall time: 10
Reenqueueing errored packet 42920 at time 1754
Reenqueueing errored packet 67439 at time 1756
Additional hops: 2494
Set signal latency stall time: 12
Additional hops: 2502
Set signal latency stall time: 16
Reenqueueing errored packet 31074 at time 1759
Reenqueueing errored packet 71408 at time 1761
Reenqueueing errored packet 73828 at time 1769
Additional hops: 2507
Set signal latency stall time: 10
Additional hops: 2512
Set signal latency stall time: 10
Reenqueueing errored packet 74302 at time 1775
Additional hops: 2515
Set signal latency stall time: 6
Additional hops: 2528
Set signal latency stall time: 26
Reenqueueing errored packet 53850 at time 1784
Reenqueueing errored packet 88648 at time 1785
Reenqueueing errored packet 74435 at time 1785
Additional hops: 2535
Set signal latency stall time: 14
Additional hops: 2544
Set signal latency stall time: 18
Additional hops: 2548
Set signal latency stall time: 8
Reenqueueing errored packet 56748 at time 1801
Reenqueueing errored packet 71713 at time 1806
Reenqueueing errored packet 30052 at time 1808
Additional hops: 2554
Set signal latency stall time: 12
Additional hops: 2559
Set signal latency stall time: 10
Reenqueueing errored packet 46772 at time 1812
Additional hops: 2561
Set signal latency stall time: 4
Additional hops: 2568
Set signal latency stall time: 14
Reenqueueing errored packet 80840 at time 1819
Reenqueueing errored packet 56681 at time 1821
Additional hops: 2572
Set signal latency stall time: 8
Reenqueueing errored packet 45872 at time 1822
Additional hops: 2581
Set signal latency stall time: 18
Additional hops: 2585
Set signal latency stall time: 8
Additional hops: 2591
Set signal latency stall time: 12
Reenqueueing errored packet 73666 at time 1830
Reenqueueing errored packet 69127 at time 1831
Additional hops: 2596
Set signal latency stall time: 10
Reenqueueing errored packet 92064 at time 1833
Reenqueueing errored packet 55584 at time 1837
Additional hops: 2601
Set signal latency stall time: 10
Additional hops: 2607
Set signal latency stall time: 12
Additional hops: 2614
Set signal latency stall time: 14
Reenqueueing errored packet 41053 at time 1842
Reenqueueing errored packet 56223 at time 1843
Additional hops: 2620
Set signal latency stall time: 12
Additional hops: 2625
Set signal latency stall time: 10
Additional hops: 2631
Set signal latency stall time: 12
Reenqueueing errored packet 56192 at time 1848
Additional hops: 2636
Set signal latency stall time: 10
Reenqueueing errored packet 90206 at time 1851
Additional hops: 2642
Set signal latency stall time: 12
Additional hops: 2647
Set signal latency stall time: 10
Reenqueueing errored packet 71657 at time 1854
Reenqueueing errored packet 75081 at time 1856
Reenqueueing errored packet 72764 at time 1856
Additional hops: 2654
Set signal latency stall time: 14
Reenqueueing errored packet 63150 at time 1858
Reenqueueing errored packet 90867 at time 1861
Additional hops: 2665
Set signal latency stall time: 22
Additional hops: 2671
Set signal latency stall time: 12
Additional hops: 2676
Set signal latency stall time: 10
Reenqueueing errored packet 76325 at time 1864
Reenqueueing errored packet 80899 at time 1864
Additional hops: 2684
Set signal latency stall time: 16
Reenqueueing errored packet 77742 at time 1871
Additional hops: 2690
Set signal latency stall time: 12
Reenqueueing errored packet 58860 at time 1873
Reenqueueing errored packet 44371 at time 1875
Reenqueueing errored packet 36882 at time 1881
Reenqueueing errored packet 74514 at time 1884
Reenqueueing errored packet 37232 at time 1884
Additional hops: 2700
Set signal latency stall time: 20
Additional hops: 2708
Set signal latency stall time: 16
Additional hops: 2710
Set signal latency stall time: 4
Reenqueueing errored packet 91898 at time 1899
Reenqueueing errored packet 66191 at time 1903
Additional hops: 2716
Set signal latency stall time: 12
Additional hops: 2724
Set signal latency stall time: 16
Reenqueueing errored packet 73894 at time 1906
Additional hops: 2728
Set signal latency stall time: 8
Additional hops: 2736
Set signal latency stall time: 16
Additional hops: 2743
Set signal latency stall time: 14
Reenqueueing errored packet 91359 at time 1917
Reenqueueing errored packet 98862 at time 1919
Additional hops: 2749
Set signal latency stall time: 12
Reenqueueing errored packet 43475 at time 1922
Additional hops: 2756
Set signal latency stall time: 14
Additional hops: 2765
Set signal latency stall time: 18
Reenqueueing errored packet 65323 at time 1929
Reenqueueing errored packet 77098 at time 1930
Reenqueueing errored packet 72181 at time 1932
Additional hops: 2773
Set signal latency stall time: 16
Reenqueueing errored packet 63948 at time 1937
Additional hops: 2786
Set signal latency stall time: 26
Reenqueueing errored packet 41449 at time 1941
Reenqueueing errored packet 53798 at time 1949
Additional hops: 2792
Set signal latency stall time: 12
Additional hops: 2800
Set signal latency stall time: 16
Reenqueueing errored packet 57824 at time 1967
Reenqueueing errored packet 31490 at time 1967
Additional hops: 2811
Set signal latency stall time: 22
Reenqueueing errored packet 53534 at time 1978
Additional hops: 2819
Set signal latency stall time: 16
Additional hops: 2821
Set signal latency stall time: 4
Additional hops: 2828
Set signal latency stall time: 14
Reenqueueing errored packet 100619 at time 1987
Additional hops: 2834
Set signal latency stall time: 12
Reenqueueing errored packet 58010 at time 1991
Reenqueueing errored packet 45333 at time 1996
Additional hops: 2840
Set signal latency stall time: 12
Reenqueueing errored packet 47237 at time 1998
Reenqueueing errored packet 101111 at time 2003
Additional hops: 2851
Set signal latency stall time: 22
Additional hops: 2858
Set signal latency stall time: 14
Additional hops: 2867
Set signal latency stall time: 18
Reenqueueing errored packet 80664 at time 2009
Additional hops: 2874
Set signal latency stall time: 14
Reenqueueing errored packet 46498 at time 2021
Reenqueueing errored packet 47189 at time 2024
Reenqueueing errored packet 63385 at time 2025
Reenqueueing errored packet 33478 at time 2026
Additional hops: 2879
Set signal latency stall time: 10
Additional hops: 2883
Set signal latency stall time: 8
Additional hops: 2891
Set signal latency stall time: 16
Additional hops: 2894
Set signal latency stall time: 6
Additional hops: 2900
Set signal latency stall time: 12
Reenqueueing errored packet 97999 at time 2037
Reenqueueing errored packet 98843 at time 2037
Additional hops: 2904
Set signal latency stall time: 8
Reenqueueing errored packet 64065 at time 2039
Additional hops: 2915
Set signal latency stall time: 22
Additional hops: 2923
Set signal latency stall time: 16
Reenqueueing errored packet 68546 at time 2046
Additional hops: 2930
Set signal latency stall time: 14
Reenqueueing errored packet 76349 at time 2047
Reenqueueing errored packet 79887 at time 2048
Additional hops: 2934
Set signal latency stall time: 8
Additional hops: 2943
Set signal latency stall time: 18
Reenqueueing errored packet 79706 at time 2061
Reenqueueing errored packet 48143 at time 2062
Reenqueueing errored packet 89507 at time 2065
Reenqueueing errored packet 35893 at time 2067
Additional hops: 2949
Set signal latency stall time: 12
Reenqueueing errored packet 62736 at time 2078
Reenqueueing errored packet 85099 at time 2080
Additional hops: 2960
Set signal latency stall time: 22
Additional hops: 2969
Set signal latency stall time: 18
Additional hops: 2977
Set signal latency stall time: 16
Additional hops: 2986
Set signal latency stall time: 18
Additional hops: 2992
Set signal latency stall time: 12
Additional hops: 3000
Set signal latency stall time: 16
Reenqueueing errored packet 58123 at time 2118
Reenqueueing errored packet 62272 at time 2118
Reenqueueing errored packet 47783 at time 2118
Additional hops: 3007
Set signal latency stall time: 14
Reenqueueing errored packet 83997 at time 2120
Reenqueueing errored packet 80007 at time 2123
Additional hops: 3014
Set signal latency stall time: 14
Reenqueueing errored packet 50375 at time 2126
Reenqueueing errored packet 62196 at time 2133
Additional hops: 3021
Set signal latency stall time: 14
Additional hops: 3026
Set signal latency stall time: 10
Reenqueueing errored packet 72738 at time 2139
Additional hops: 3033
Set signal latency stall time: 14
Additional hops: 3036
Set signal latency stall time: 6
Additional hops: 3042
Set signal latency stall time: 12
Reenqueueing errored packet 63312 at time 2147
Additional hops: 3048
Set signal latency stall time: 12
Reenqueueing errored packet 88810 at time 2148
Additional hops: 3053
Set signal latency stall time: 10
Reenqueueing errored packet 86921 at time 2149
Additional hops: 3061
Set signal latency stall time: 16
Additional hops: 3070
Set signal latency stall time: 18
Reenqueueing errored packet 89689 at time 2155
Additional hops: 3077
Set signal latency stall time: 14
Additional hops: 3083
Set signal latency stall time: 12
Reenqueueing errored packet 63194 at time 2157
Reenqueueing errored packet 58231 at time 2159
Reenqueueing errored packet 88642 at time 2160
Additional hops: 3087
Set signal latency stall time: 8
Additional hops: 3093
Set signal latency stall time: 12
Additional hops: 3097
Set signal latency stall time: 8
Additional hops: 3112
Set signal latency stall time: 30
Additional hops: 3116
Set signal latency stall time: 8
Reenqueueing errored packet 54347 at time 2169
Reenqueueing errored packet 87144 at time 2170
Reenqueueing errored packet 105068 at time 2170
Reenqueueing errored packet 76523 at time 2171
Reenqueueing errored packet 113903 at time 2172
Reenqueueing errored packet 82100 at time 2173
Reenqueueing errored packet 74025 at time 2174
Reenqueueing errored packet 84607 at time 2176
Additional hops: 3122
Set signal latency stall time: 12
Additional hops: 3127
Set signal latency stall time: 10
Additional hops: 3134
Set signal latency stall time: 14
Additional hops: 3141
Set signal latency stall time: 14
Additional hops: 3149
Set signal latency stall time: 16
Reenqueueing errored packet 89413 at time 2192
Reenqueueing errored packet 66581 at time 2195
Reenqueueing errored packet 35973 at time 2195
Additional hops: 3157
Set signal latency stall time: 16
Additional hops: 3161
Set signal latency stall time: 8
Reenqueueing errored packet 42985 at time 2204
Reenqueueing errored packet 75369 at time 2205
Reenqueueing errored packet 57765 at time 2207
Additional hops: 3166
Set signal latency stall time: 10
Reenqueueing errored packet 110474 at time 2209
Additional hops: 3171
Set signal latency stall time: 10
Reenqueueing errored packet 48224 at time 2214
Reenqueueing errored packet 89887 at time 2218
Reenqueueing errored packet 106411 at time 2221
Additional hops: 3177
Set signal latency stall time: 12
Additional hops: 3187
Set signal latency stall time: 20
Reenqueueing errored packet 64512 at time 2235
Additional hops: 3194
Set signal latency stall time: 14
Additional hops: 3200
Set signal latency stall time: 12
Reenqueueing errored packet 69677 at time 2245
Additional hops: 3203
Set signal latency stall time: 6
Additional hops: 3208
Set signal latency stall time: 10
Reenqueueing errored packet 89460 at time 2249
Reenqueueing errored packet 61232 at time 2250
Reenqueueing errored packet 106640 at time 2253
Additional hops: 3215
Set signal latency stall time: 14
Additional hops: 3221
Set signal latency stall time: 12
Reenqueueing errored packet 112050 at time 2258
Additional hops: 3226
Set signal latency stall time: 10
Additional hops: 3231
Set signal latency stall time: 10
Reenqueueing errored packet 89229 at time 2268
Reenqueueing errored packet 63121 at time 2269
Additional hops: 3236
Set signal latency stall time: 10
Additional hops: 3242
Set signal latency stall time: 12
Reenqueueing errored packet 107721 at time 2276
Additional hops: 3246
Set signal latency stall time: 8
Reenqueueing errored packet 105441 at time 2278
Additional hops: 3254
Set signal latency stall time: 16
Reenqueueing errored packet 93245 at time 2283
Reenqueueing errored packet 97121 at time 2285
Reenqueueing errored packet 72116 at time 2286
Additional hops: 3257
Set signal latency stall time: 6
Additional hops: 3263
Set signal latency stall time: 12
Reenqueueing errored packet 115374 at time 2294
Reenqueueing errored packet 55623 at time 2296
Additional hops: 3264
Set signal latency stall time: 2
Reenqueueing errored packet 124486 at time 2299
Additional hops: 3268
Set signal latency stall time: 8
Reenqueueing errored packet 82446 at time 2302
Additional hops: 3271
Set signal latency stall time: 6
Reenqueueing errored packet 74264 at time 2308
Reenqueueing errored packet 113633 at time 2309
Additional hops: 3274
Set signal latency stall time: 6
Reenqueueing errored packet 76265 at time 2336
Additional hops: 3277
Set signal latency stall time: 6
Additional hops: 3287
Set signal latency stall time: 20
Reenqueueing errored packet 76885 at time 2347
Additional hops: 3290
Set signal latency stall time: 6
Additional hops: 3294
Set signal latency stall time: 8
Additional hops: 3301
Set signal latency stall time: 14
Reenqueueing errored packet 69244 at time 2354
Reenqueueing errored packet 117449 at time 2359
Reenqueueing errored packet 58581 at time 2365
Reenqueueing errored packet 44272 at time 2366
Additional hops: 3307
Set signal latency stall time: 12
Additional hops: 3310
Set signal latency stall time: 6
Reenqueueing errored packet 91465 at time 2381
Reenqueueing errored packet 103700 at time 2382
Additional hops: 3315
Set signal latency stall time: 10
Additional hops: 3316
Set signal latency stall time: 2
Additional hops: 3323
Set signal latency stall time: 14
Reenqueueing errored packet 129631 at time 2392
Additional hops: 3332
Set signal latency stall time: 18
Additional hops: 3338
Set signal latency stall time: 12
Reenqueueing errored packet 104015 at time 2397
Additional hops: 3348
Set signal latency stall time: 20
Reenqueueing errored packet 78716 at time 2405
Reenqueueing errored packet 70874 at time 2405
Additional hops: 3356
Set signal latency stall time: 16
Additional hops: 3363
Set signal latency stall time: 14
Reenqueueing errored packet 91107 at time 2411
Reenqueueing errored packet 91341 at time 2421
Reenqueueing errored packet 70138 at time 2425
Reenqueueing errored packet 96733 at time 2425
Additional hops: 3366
Set signal latency stall time: 6
Reenqueueing errored packet 124491 at time 2441
Additional hops: 3372
Set signal latency stall time: 12
Additional hops: 3378
Set signal latency stall time: 12
Additional hops: 3382
Set signal latency stall time: 8
Additional hops: 3388
Set signal latency stall time: 12
Additional hops: 3396
Set signal latency stall time: 16
Reenqueueing errored packet 98486 at time 2466
Reenqueueing errored packet 67858 at time 2466
Additional hops: 3404
Set signal latency stall time: 16
Reenqueueing errored packet 119596 at time 2467
Additional hops: 3414
Set signal latency stall time: 20
Reenqueueing errored packet 106855 at time 2473
Additional hops: 3421
Set signal latency stall time: 14
Additional hops: 3433
Set signal latency stall time: 24
Additional hops: 3439
Set signal latency stall time: 12
Additional hops: 3448
Set signal latency stall time: 18
Reenqueueing errored packet 75602 at time 2482
Reenqueueing errored packet 73666 at time 2483
Reenqueueing errored packet 66463 at time 2488
Additional hops: 3453
Set signal latency stall time: 10
Reenqueueing errored packet 99940 at time 2491
Reenqueueing errored packet 88216 at time 2493
Reenqueueing errored packet 88065 at time 2498
Reenqueueing errored packet 101115 at time 2499
Reenqueueing errored packet 76968 at time 2501
Additional hops: 3456
Set signal latency stall time: 6
Additional hops: 3461
Set signal latency stall time: 10
Reenqueueing errored packet 107290 at time 2511
Reenqueueing errored packet 121392 at time 2516
Additional hops: 3466
Set signal latency stall time: 10
Additional hops: 3476
Set signal latency stall time: 20
Additional hops: 3482
Set signal latency stall time: 12
Reenqueueing errored packet 127822 at time 2529
Additional hops: 3489
Set signal latency stall time: 14
Additional hops: 3501
Set signal latency stall time: 24
Reenqueueing errored packet 59278 at time 2540
Additional hops: 3510
Set signal latency stall time: 18
Reenqueueing errored packet 56160 at time 2544
Reenqueueing errored packet 105947 at time 2545
Additional hops: 3517
Set signal latency stall time: 14
Additional hops: 3519
Set signal latency stall time: 4
Additional hops: 3523
Set signal latency stall time: 8
Additional hops: 3532
Set signal latency stall time: 18
Additional hops: 3541
Set signal latency stall time: 18
Additional hops: 3549
Set signal latency stall time: 16
Reenqueueing errored packet 104393 at time 2553
Additional hops: 3559
Set signal latency stall time: 20
Additional hops: 3570
Set signal latency stall time: 22
Reenqueueing errored packet 102658 at time 2557
Reenqueueing errored packet 60589 at time 2561
Reenqueueing errored packet 63272 at time 2562
Reenqueueing errored packet 43319 at time 2563
Additional hops: 3574
Set signal latency stall time: 8
Additional hops: 3583
Set signal latency stall time: 18
Reenqueueing errored packet 92851 at time 2569
Reenqueueing errored packet 54169 at time 2569
Reenqueueing errored packet 59818 at time 2570
Additional hops: 3591
Set signal latency stall time: 16
Additional hops: 3596
Set signal latency stall time: 10
Reenqueueing errored packet 113429 at time 2575
Reenqueueing errored packet 61483 at time 2576
Additional hops: 3604
Set signal latency stall time: 16
Additional hops: 3609
Set signal latency stall time: 10
Additional hops: 3614
Set signal latency stall time: 10
Reenqueueing errored packet 59288 at time 2579
Reenqueueing errored packet 73681 at time 2583
Reenqueueing errored packet 102735 at time 2587
Reenqueueing errored packet 122789 at time 2589
Reenqueueing errored packet 99076 at time 2589
Reenqueueing errored packet 116315 at time 2593
Additional hops: 3620
Set signal latency stall time: 12
Additional hops: 3630
Set signal latency stall time: 20
Reenqueueing errored packet 99883 at time 2607
Additional hops: 3635
Set signal latency stall time: 10
Additional hops: 3639
Set signal latency stall time: 8
Additional hops: 3643
Set signal latency stall time: 8
Reenqueueing errored packet 44848 at time 2620
Reenqueueing errored packet 101553 at time 2623
Reenqueueing errored packet 115487 at time 2624
Reenqueueing errored packet 106703 at time 2626
Additional hops: 3653
Set signal latency stall time: 20
Additional hops: 3664
Set signal latency stall time: 22
Additional hops: 3670
Set signal latency stall time: 12
Additional hops: 3676
Set signal latency stall time: 12
Additional hops: 3679
Set signal latency stall time: 6
Additional hops: 3683
Set signal latency stall time: 8
Reenqueueing errored packet 91626 at time 2645
Additional hops: 3688
Set signal latency stall time: 10
Reenqueueing errored packet 109732 at time 2648
Additional hops: 3696
Set signal latency stall time: 16
Reenqueueing errored packet 101297 at time 2649
Additional hops: 3702
Set signal latency stall time: 12
Reenqueueing errored packet 91432 at time 2650
Additional hops: 3708
Set signal latency stall time: 12
Reenqueueing errored packet 80268 at time 2653
Additional hops: 3712
Set signal latency stall time: 8
Reenqueueing errored packet 104270 at time 2656
Additional hops: 3713
Set signal latency stall time: 2
Reenqueueing errored packet 143849 at time 2659
Additional hops: 3722
Set signal latency stall time: 18
Additional hops: 3730
Set signal latency stall time: 16
Reenqueueing errored packet 102804 at time 2662
Additional hops: 3733
Set signal latency stall time: 6
Reenqueueing errored packet 134141 at time 2663
Additional hops: 3737
Set signal latency stall time: 8
Reenqueueing errored packet 109944 at time 2665
Reenqueueing errored packet 95747 at time 2665
Additional hops: 3742
Set signal latency stall time: 10
Additional hops: 3746
Set signal latency stall time: 8
Reenqueueing errored packet 134008 at time 2669
Reenqueueing errored packet 75736 at time 2672
Additional hops: 3751
Set signal latency stall time: 10
Additional hops: 3758
Set signal latency stall time: 14
Reenqueueing errored packet 73921 at time 2677
Additional hops: 3771
Set signal latency stall time: 26
Reenqueueing errored packet 110339 at time 2678
Reenqueueing errored packet 104153 at time 2678
Reenqueueing errored packet 97867 at time 2679
Reenqueueing errored packet 127776 at time 2683
Additional hops: 3778
Set signal latency stall time: 14
Additional hops: 3788
Set signal latency stall time: 20
Additional hops: 3793
Set signal latency stall time: 10
Reenqueueing errored packet 62542 at time 2690
Additional hops: 3801
Set signal latency stall time: 16
Additional hops: 3809
Set signal latency stall time: 16
Additional hops: 3822
Set signal latency stall time: 26
Reenqueueing errored packet 135293 at time 2700
Reenqueueing errored packet 127486 at time 2701
Additional hops: 3831
Set signal latency stall time: 18
Reenqueueing errored packet 57149 at time 2704
Additional hops: 3841
Set signal latency stall time: 20
Reenqueueing errored packet 70990 at time 2708
Additional hops: 3849
Set signal latency stall time: 16
Reenqueueing errored packet 59839 at time 2710
Additional hops: 3856
Set signal latency stall time: 14
Additional hops: 3858
Set signal latency stall time: 4
Additional hops: 3866
Set signal latency stall time: 16
Reenqueueing errored packet 109253 at time 2717
Reenqueueing errored packet 64431 at time 2720
Reenqueueing errored packet 112209 at time 2725
Reenqueueing errored packet 75017 at time 2726
Additional hops: 3877
Set signal latency stall time: 22
Reenqueueing errored packet 61471 at time 2728
Additional hops: 3880
Set signal latency stall time: 6
Reenqueueing errored packet 65029 at time 2729
Additional hops: 3882
Set signal latency stall time: 4
Reenqueueing errored packet 113881 at time 2735
Reenqueueing errored packet 111730 at time 2739
Additional hops: 3888
Set signal latency stall time: 12
Reenqueueing errored packet 104051 at time 2750
Additional hops: 3896
Set signal latency stall time: 16
Additional hops: 3903
Set signal latency stall time: 14
Additional hops: 3915
Set signal latency stall time: 24
Additional hops: 3921
Set signal latency stall time: 12
Additional hops: 3925
Set signal latency stall time: 8
Reenqueueing errored packet 81237 at time 2756
Reenqueueing errored packet 114570 at time 2764
Reenqueueing errored packet 88295 at time 2765
Reenqueueing errored packet 106056 at time 2767
Reenqueueing errored packet 107585 at time 2767
Additional hops: 3934
Set signal latency stall time: 18
Additional hops: 3938
Set signal latency stall time: 8
Additional hops: 3948
Set signal latency stall time: 20
Additional hops: 3953
Set signal latency stall time: 10
Reenqueueing errored packet 50077 at time 2777
Additional hops: 3961
Set signal latency stall time: 16
Reenqueueing errored packet 99130 at time 2779
Additional hops: 3970
Set signal latency stall time: 18
Additional hops: 3976
Set signal latency stall time: 12
Additional hops: 3983
Set signal latency stall time: 14
Reenqueueing errored packet 102326 at time 2789
Reenqueueing errored packet 63024 at time 2791
Reenqueueing errored packet 125613 at time 2794
Reenqueueing errored packet 85143 at time 2795
Reenqueueing errored packet 120465 at time 2798
Reenqueueing errored packet 61834 at time 2799
Additional hops: 3992
Set signal latency stall time: 18
Additional hops: 3998
Set signal latency stall time: 12
Additional hops: 4004
Set signal latency stall time: 12
Additional hops: 4011
Set signal latency stall time: 14
Reenqueueing errored packet 142537 at time 2817
Reenqueueing errored packet 106215 at time 2818
Reenqueueing errored packet 88079 at time 2823
Reenqueueing errored packet 72215 at time 2826
Additional hops: 4020
Set signal latency stall time: 18
Additional hops: 4026
Set signal latency stall time: 12
Additional hops: 4032
Set signal latency stall time: 12
Additional hops: 4040
Set signal latency stall time: 16
Additional hops: 4047
Set signal latency stall time: 14
Additional hops: 4054
Set signal latency stall time: 14
Additional hops: 4058
Set signal latency stall time: 8
Additional hops: 4061
Set signal latency stall time: 6
Reenqueueing errored packet 115042 at time 2843
Reenqueueing errored packet 114382 at time 2843
Additional hops: 4064
Set signal latency stall time: 6
Additional hops: 4073
Set signal latency stall time: 18
Reenqueueing errored packet 144960 at time 2846
Reenqueueing errored packet 91863 at time 2846
Reenqueueing errored packet 63059 at time 2848
Reenqueueing errored packet 98123 at time 2848
Reenqueueing errored packet 74580 at time 2849
Reenqueueing errored packet 144243 at time 2850
Reenqueueing errored packet 116979 at time 2850
Additional hops: 4080
Set signal latency stall time: 14
Additional hops: 4084
Set signal latency stall time: 8
Additional hops: 4091
Set signal latency stall time: 14
Additional hops: 4098
Set signal latency stall time: 14
Reenqueueing errored packet 114635 at time 2865
Reenqueueing errored packet 99523 at time 2866
Additional hops: 4101
Set signal latency stall time: 6
Reenqueueing errored packet 120701 at time 2873
Reenqueueing errored packet 114253 at time 2873
Additional hops: 4109
Set signal latency stall time: 16
Additional hops: 4113
Set signal latency stall time: 8
Additional hops: 4133
Set signal latency stall time: 40
Additional hops: 4145
Set signal latency stall time: 24
Reenqueueing errored packet 120034 at time 2883
Additional hops: 4154
Set signal latency stall time: 18
Additional hops: 4163
Set signal latency stall time: 18
Reenqueueing errored packet 113359 at time 2890
Additional hops: 4171
Set signal latency stall time: 16
Additional hops: 4178
Set signal latency stall time: 14
Additional hops: 4186
Set signal latency stall time: 16
Additional hops: 4191
Set signal latency stall time: 10
Additional hops: 4198
Set signal latency stall time: 14
Reenqueueing errored packet 108923 at time 2904
Reenqueueing errored packet 62050 at time 2905
Reenqueueing errored packet 90626 at time 2908
Reenqueueing errored packet 99682 at time 2908
Reenqueueing errored packet 86212 at time 2909
Reenqueueing errored packet 68700 at time 2913
Reenqueueing errored packet 83892 at time 2913
Additional hops: 4208
Set signal latency stall time: 20
Additional hops: 4214
Set signal latency stall time: 12
Reenqueueing errored packet 46562 at time 2920
Additional hops: 4223
Set signal latency stall time: 18
Additional hops: 4233
Set signal latency stall time: 20
Reenqueueing errored packet 117594 at time 2930
Additional hops: 4237
Set signal latency stall time: 8
Additional hops: 4238
Set signal latency stall time: 2
Reenqueueing errored packet 156079 at time 2933
Reenqueueing errored packet 58702 at time 2935
Additional hops: 4252
Set signal latency stall time: 28
Additional hops: 4256
Set signal latency stall time: 8
Reenqueueing errored packet 143310 at time 2939
Additional hops: 4264
Set signal latency stall time: 16
Reenqueueing errored packet 117093 at time 2942
Reenqueueing errored packet 95109 at time 2947
Additional hops: 4279
Set signal latency stall time: 30
Reenqueueing errored packet 63797 at time 2956
Additional hops: 4286
Set signal latency stall time: 14
Additional hops: 4290
Set signal latency stall time: 8
Reenqueueing errored packet 51668 at time 2967
Reenqueueing errored packet 99429 at time 2973
Reenqueueing errored packet 93649 at time 2974
Additional hops: 4294
Set signal latency stall time: 8
Additional hops: 4299
Set signal latency stall time: 10
Reenqueueing errored packet 48847 at time 2980
Additional hops: 4303
Set signal latency stall time: 8
Additional hops: 4314
Set signal latency stall time: 22
Reenqueueing errored packet 123907 at time 2985
Reenqueueing errored packet 112381 at time 2990
Additional hops: 4320
Set signal latency stall time: 12
Reenqueueing errored packet 72072 at time 3004
Additional hops: 4330
Set signal latency stall time: 20
Reenqueueing errored packet 147458 at time 3010
Additional hops: 4336
Set signal latency stall time: 12
Additional hops: 4346
Set signal latency stall time: 20
Additional hops: 4354
Set signal latency stall time: 16
Reenqueueing errored packet 91670 at time 3024
Additional hops: 4364
Set signal latency stall time: 20
Additional hops: 4369
Set signal latency stall time: 10
Additional hops: 4374
Set signal latency stall time: 10
Additional hops: 4377
Set signal latency stall time: 6
Reenqueueing errored packet 121263 at time 3037
Reenqueueing errored packet 129587 at time 3038
Reenqueueing errored packet 94203 at time 3040
Additional hops: 4384
Set signal latency stall time: 14
Reenqueueing errored packet 121837 at time 3043
Additional hops: 4388
Set signal latency stall time: 8
Reenqueueing errored packet 145774 at time 3045
Reenqueueing errored packet 95034 at time 3045
Additional hops: 4398
Set signal latency stall time: 20
Additional hops: 4404
Set signal latency stall time: 12
Additional hops: 4411
Set signal latency stall time: 14
Reenqueueing errored packet 140251 at time 3052
Reenqueueing errored packet 106968 at time 3056
Additional hops: 4414
Set signal latency stall time: 6
Additional hops: 4422
Set signal latency stall time: 16
Additional hops: 4429
Set signal latency stall time: 14
Additional hops: 4432
Set signal latency stall time: 6
Reenqueueing errored packet 128521 at time 3060
Additional hops: 4437
Set signal latency stall time: 10
Reenqueueing errored packet 146512 at time 3063
Additional hops: 4444
Set signal latency stall time: 14
Reenqueueing errored packet 74100 at time 3065
Reenqueueing errored packet 56811 at time 3067
Reenqueueing errored packet 126375 at time 3072
Additional hops: 4448
Set signal latency stall time: 8
Reenqueueing errored packet 138545 at time 3073
Reenqueueing errored packet 118439 at time 3073
Additional hops: 4455
Set signal latency stall time: 14
Reenqueueing errored packet 131400 at time 3078
Reenqueueing errored packet 148431 at time 3081
Additional hops: 4464
Set signal latency stall time: 18
Additional hops: 4465
Set signal latency stall time: 2
Additional hops: 4468
Set signal latency stall time: 6
Additional hops: 4476
Set signal latency stall time: 16
Additional hops: 4479
Set signal latency stall time: 6
Reenqueueing errored packet 120516 at time 3105
Reenqueueing errored packet 152795 at time 3107
Additional hops: 4486
Set signal latency stall time: 14
Additional hops: 4489
Set signal latency stall time: 6
Reenqueueing errored packet 97012 at time 3110
Additional hops: 4496
Set signal latency stall time: 14
Reenqueueing errored packet 132174 at time 3116
Additional hops: 4505
Set signal latency stall time: 18
Additional hops: 4509
Set signal latency stall time: 8
Reenqueueing errored packet 101212 at time 3122
Reenqueueing errored packet 85237 at time 3126
Reenqueueing errored packet 120500 at time 3129
Additional hops: 4512
Set signal latency stall time: 6
Additional hops: 4524
Set signal latency stall time: 24
Reenqueueing errored packet 126442 at time 3139
Reenqueueing errored packet 66648 at time 3139
Additional hops: 4534
Set signal latency stall time: 20
Additional hops: 4543
Set signal latency stall time: 18
Additional hops: 4550
Set signal latency stall time: 14
Additional hops: 4558
Set signal latency stall time: 16
Additional hops: 4566
Set signal latency stall time: 16
Reenqueueing errored packet 63207 at time 3158
Additional hops: 4572
Set signal latency stall time: 12
Reenqueueing errored packet 143213 at time 3160
Additional hops: 4581
Set signal latency stall time: 18
Reenqueueing errored packet 79846 at time 3162
Reenqueueing errored packet 121597 at time 3162
Additional hops: 4587
Set signal latency stall time: 12
Additional hops: 4590
Set signal latency stall time: 6
Reenqueueing errored packet 134075 at time 3172
Reenqueueing errored packet 84546 at time 3173
Reenqueueing errored packet 149670 at time 3174
Additional hops: 4597
Set signal latency stall time: 14
Additional hops: 4603
Set signal latency stall time: 12
Reenqueueing errored packet 147658 at time 3178
Reenqueueing errored packet 114206 at time 3179
Additional hops: 4610
Set signal latency stall time: 14
Additional hops: 4617
Set signal latency stall time: 14
Reenqueueing errored packet 101857 at time 3189
Reenqueueing errored packet 130807 at time 3189
Additional hops: 4624
Set signal latency stall time: 14
Additional hops: 4634
Set signal latency stall time: 20
Reenqueueing errored packet 155426 at time 3199
Additional hops: 4645
Set signal latency stall time: 22
Additional hops: 4650
Set signal latency stall time: 10
Additional hops: 4656
Set signal latency stall time: 12
Reenqueueing errored packet 134021 at time 3208
Additional hops: 4662
Set signal latency stall time: 12
Additional hops: 4671
Set signal latency stall time: 18
Reenqueueing errored packet 79732 at time 3215
Reenqueueing errored packet 116332 at time 3219
Reenqueueing errored packet 133704 at time 3220
Additional hops: 4674
Set signal latency stall time: 6
Reenqueueing errored packet 58147 at time 3226
Additional hops: 4678
Set signal latency stall time: 8
Reenqueueing errored packet 152859 at time 3229
Additional hops: 4685
Set signal latency stall time: 14
Additional hops: 4696
Set signal latency stall time: 22
Additional hops: 4706
Set signal latency stall time: 20
Reenqueueing errored packet 89903 at time 3233
Additional hops: 4711
Set signal latency stall time: 10
Additional hops: 4719
Set signal latency stall time: 16
Additional hops: 4726
Set signal latency stall time: 14
Additional hops: 4734
Set signal latency stall time: 16
Reenqueueing errored packet 102413 at time 3245
Additional hops: 4740
Set signal latency stall time: 12
Additional hops: 4752
Set signal latency stall time: 24
Reenqueueing errored packet 113386 at time 3249
Reenqueueing errored packet 102722 at time 3253
Reenqueueing errored packet 65992 at time 3253
Additional hops: 4759
Set signal latency stall time: 14
Reenqueueing errored packet 80901 at time 3257
Reenqueueing errored packet 97296 at time 3258
Reenqueueing errored packet 107741 at time 3259
Reenqueueing errored packet 78163 at time 3261
Reenqueueing errored packet 89531 at time 3268
Reenqueueing errored packet 78057 at time 3271
Additional hops: 4768
Set signal latency stall time: 18
Additional hops: 4776
Set signal latency stall time: 16
Additional hops: 4779
Set signal latency stall time: 6
Additional hops: 4787
Set signal latency stall time: 16
Additional hops: 4797
Set signal latency stall time: 20
Reenqueueing errored packet 147631 at time 3281
Reenqueueing errored packet 134284 at time 3290
Reenqueueing errored packet 74445 at time 3290
Additional hops: 4807
Set signal latency stall time: 20
Reenqueueing errored packet 124579 at time 3292
Additional hops: 4811
Set signal latency stall time: 8
Additional hops: 4818
Set signal latency stall time: 14
Reenqueueing errored packet 86101 at time 3301
Reenqueueing errored packet 145584 at time 3302
Additional hops: 4826
Set signal latency stall time: 16
Additional hops: 4837
Set signal latency stall time: 22
Additional hops: 4844
Set signal latency stall time: 14
Reenqueueing errored packet 159135 at time 3311
Reenqueueing errored packet 86162 at time 3312
Additional hops: 4850
Set signal latency stall time: 12
Additional hops: 4858
Set signal latency stall time: 16
Additional hops: 4865
Set signal latency stall time: 14
Reenqueueing errored packet 164532 at time 3325
Reenqueueing errored packet 137196 at time 3327
Reenqueueing errored packet 82277 at time 3330
Additional hops: 4870
Set signal latency stall time: 10
Additional hops: 4875
Set signal latency stall time: 10
Additional hops: 4883
Set signal latency stall time: 16
Reenqueueing errored packet 143097 at time 3342
Reenqueueing errored packet 144823 at time 3342
Additional hops: 4889
Set signal latency stall time: 12
Reenqueueing errored packet 149642 at time 3350
Reenqueueing errored packet 163890 at time 3355
Additional hops: 4900
Set signal latency stall time: 22
Additional hops: 4912
Set signal latency stall time: 24
Additional hops: 4924
Set signal latency stall time: 24
Additional hops: 4926
Set signal latency stall time: 4
Additional hops: 4939
Set signal latency stall time: 26
Additional hops: 4949
Set signal latency stall time: 20
Reenqueueing errored packet 176232 at time 3377
Additional hops: 4952
Set signal latency stall time: 6
Additional hops: 4959
Set signal latency stall time: 14
Additional hops: 4968
Set signal latency stall time: 18
Reenqueueing errored packet 62558 at time 3384
Reenqueueing errored packet 150765 at time 3386
Additional hops: 4973
Set signal latency stall time: 10
Additional hops: 4975
Set signal latency stall time: 4
Reenqueueing errored packet 130257 at time 3394
Reenqueueing errored packet 123111 at time 3395
Reenqueueing errored packet 143721 at time 3397
Reenqueueing errored packet 85381 at time 3397
Reenqueueing errored packet 110857 at time 3402
Reenqueueing errored packet 82647 at time 3402
Additional hops: 4980
Set signal latency stall time: 10
Additional hops: 4988
Set signal latency stall time: 16
Additional hops: 4996
Set signal latency stall time: 16
Additional hops: 4998
Set signal latency stall time: 4
Reenqueueing errored packet 154957 at time 3412
Reenqueueing errored packet 91978 at time 3414
Additional hops: 5007
Set signal latency stall time: 18
Additional hops: 5015
Set signal latency stall time: 16
Reenqueueing errored packet 86151 at time 3423
Reenqueueing errored packet 127000 at time 3423
Additional hops: 5024
Set signal latency stall time: 18
Additional hops: 5029
Set signal latency stall time: 10
Reenqueueing errored packet 73677 at time 3438
Reenqueueing errored packet 132715 at time 3439
Additional hops: 5037
Set signal latency stall time: 16
Additional hops: 5042
Set signal latency stall time: 10
Additional hops: 5048
Set signal latency stall time: 12
Reenqueueing errored packet 109396 at time 3448
Additional hops: 5053
Set signal latency stall time: 10
Additional hops: 5056
Set signal latency stall time: 6
Reenqueueing errored packet 105940 at time 3454
Additional hops: 5065
Set signal latency stall time: 18
Reenqueueing errored packet 158032 at time 3456
Reenqueueing errored packet 157067 at time 3456
Reenqueueing errored packet 126158 at time 3458
Additional hops: 5073
Set signal latency stall time: 16
Additional hops: 5081
Set signal latency stall time: 16
Additional hops: 5086
Set signal latency stall time: 10
Additional hops: 5093
Set signal latency stall time: 14
Additional hops: 5100
Set signal latency stall time: 14
[...]
Reenqueueing errored packet 169998 at time 8897
Additional hops: 14242
Set signal latency stall time: 16
Reenqueueing errored packet 273226 at time 8906
Reenqueueing errored packet 308847 at time 8906
Additional hops: 14251
Set signal latency stall time: 18
Additional hops: 14255
Set signal latency stall time: 8
Additional hops: 14259
Set signal latency stall time: 8
Reenqueueing errored packet 282857 at time 8917
Reenqueueing errored packet 339028 at time 8924
Additional hops: 14265
Set signal latency stall time: 12
Additional hops: 14269
Set signal latency stall time: 8
Reenqueueing errored packet 310801 at time 8933
Reenqueueing errored packet 335933 at time 8940
Additional hops: 14277
Set signal latency stall time: 16
Additional hops: 14282
Set signal latency stall time: 10
Additional hops: 14285
Set signal latency stall time: 6
Additional hops: 14295
Set signal latency stall time: 20
Reenqueueing errored packet 307392 at time 8959
Reenqueueing errored packet 336417 at time 8961
Additional hops: 14300
Set signal latency stall time: 10
Reenqueueing errored packet 296348 at time 8965
Additional hops: 14303
Set signal latency stall time: 6
Additional hops: 14308
Set signal latency stall time: 10
Reenqueueing errored packet 331346 at time 8975
Reenqueueing errored packet 271354 at time 8976
Additional hops: 14317
Set signal latency stall time: 18
Additional hops: 14323
Set signal latency stall time: 12
Additional hops: 14329
Set signal latency stall time: 12
Reenqueueing errored packet 308376 at time 8998
Additional hops: 14342
Set signal latency stall time: 26
Reenqueueing errored packet 323715 at time 8999
Additional hops: 14350
Set signal latency stall time: 16
Additional hops: 14363
Set signal latency stall time: 26
Additional hops: 14373
Set signal latency stall time: 20
Additional hops: 14380
Set signal latency stall time: 14
Additional hops: 14388
Set signal latency stall time: 16
Additional hops: 14397
Set signal latency stall time: 18
Additional hops: 14400
Set signal latency stall time: 6
Additional hops: 14410
Set signal latency stall time: 20
Additional hops: 14421
Set signal latency stall time: 22
Reenqueueing errored packet 338425 at time 9026
Reenqueueing errored packet 205090 at time 9033
Reenqueueing errored packet 327150 at time 9037
Reenqueueing errored packet 178860 at time 9040
Additional hops: 14432
Set signal latency stall time: 22
Reenqueueing errored packet 205764 at time 9044
Additional hops: 14436
Set signal latency stall time: 8
Additional hops: 14445
Set signal latency stall time: 18
Additional hops: 14451
Set signal latency stall time: 12
Additional hops: 14458
Set signal latency stall time: 14
Additional hops: 14466
Set signal latency stall time: 16
Additional hops: 14476
Set signal latency stall time: 20
Reenqueueing errored packet 325410 at time 9055
Additional hops: 14485
Set signal latency stall time: 18
Reenqueueing errored packet 265229 at time 9063
Additional hops: 14495
Set signal latency stall time: 20
Reenqueueing errored packet 329926 at time 9065
Additional hops: 14502
Set signal latency stall time: 14
Additional hops: 14511
Set signal latency stall time: 18
Reenqueueing errored packet 324692 at time 9067
Additional hops: 14515
Set signal latency stall time: 8
Reenqueueing errored packet 169369 at time 9073
Additional hops: 14522
Set signal latency stall time: 14
Reenqueueing errored packet 285429 at time 9084
Additional hops: 14526
Set signal latency stall time: 8
Additional hops: 14535
Set signal latency stall time: 18
Reenqueueing errored packet 322063 at time 9095
Reenqueueing errored packet 329281 at time 9099
Additional hops: 14542
Set signal latency stall time: 14
Additional hops: 14553
Set signal latency stall time: 22
Additional hops: 14561
Set signal latency stall time: 16
Additional hops: 14568
Set signal latency stall time: 14
Reenqueueing errored packet 314217 at time 9110
Additional hops: 14576
Set signal latency stall time: 16
Additional hops: 14584
Set signal latency stall time: 16
Reenqueueing errored packet 267571 at time 9123
Additional hops: 14594
Set signal latency stall time: 20
Reenqueueing errored packet 211346 at time 9132
Reenqueueing errored packet 319105 at time 9133
Additional hops: 14600
Set signal latency stall time: 12
Reenqueueing errored packet 306312 at time 9148
Additional hops: 14602
Set signal latency stall time: 4
Additional hops: 14604
Set signal latency stall time: 4
Reenqueueing errored packet 312595 at time 9164
Additional hops: 14609
Set signal latency stall time: 10
Additional hops: 14615
Set signal latency stall time: 12
Additional hops: 14622
Set signal latency stall time: 14
Reenqueueing errored packet 335478 at time 9175
Additional hops: 14634
Set signal latency stall time: 24
Reenqueueing errored packet 350316 at time 9178
Additional hops: 14639
Set signal latency stall time: 10
Reenqueueing errored packet 255919 at time 9185
Reenqueueing errored packet 348089 at time 9189
Additional hops: 14643
Set signal latency stall time: 8
Additional hops: 14652
Set signal latency stall time: 18
Additional hops: 14660
Set signal latency stall time: 16
Additional hops: 14662
Set signal latency stall time: 4
Additional hops: 14670
Set signal latency stall time: 16
Reenqueueing errored packet 351393 at time 9215
Additional hops: 14677
Set signal latency stall time: 14
Reenqueueing errored packet 343048 at time 9243
Additional hops: 14685
Set signal latency stall time: 16
Additional hops: 14694
Set signal latency stall time: 18
Additional hops: 14701
Set signal latency stall time: 14
Additional hops: 14709
Set signal latency stall time: 16
Additional hops: 14716
Set signal latency stall time: 14
Reenqueueing errored packet 306493 at time 9263
Additional hops: 14719
Set signal latency stall time: 6
Reenqueueing errored packet 280298 at time 9265
Additional hops: 14724
Set signal latency stall time: 10
Additional hops: 14733
Set signal latency stall time: 18
Reenqueueing errored packet 332433 at time 9275
Additional hops: 14740
Set signal latency stall time: 14
Reenqueueing errored packet 346202 at time 9282
Additional hops: 14750
Set signal latency stall time: 20
Additional hops: 14757
Set signal latency stall time: 14
Additional hops: 14765
Set signal latency stall time: 16
Additional hops: 14772
Set signal latency stall time: 14
Additional hops: 14781
Set signal latency stall time: 18
Additional hops: 14791
Set signal latency stall time: 20
Additional hops: 14793
Set signal latency stall time: 4
Additional hops: 14800
Set signal latency stall time: 14
Reenqueueing errored packet 352137 at time 9300
Reenqueueing errored packet 318177 at time 9302
Additional hops: 14804
Set signal latency stall time: 8
Additional hops: 14809
Set signal latency stall time: 10
Reenqueueing errored packet 337698 at time 9310
Reenqueueing errored packet 349732 at time 9311
Additional hops: 14815
Set signal latency stall time: 12
Reenqueueing errored packet 285551 at time 9313
Reenqueueing errored packet 282827 at time 9313
Additional hops: 14817
Set signal latency stall time: 4
Additional hops: 14825
Set signal latency stall time: 16
Reenqueueing errored packet 341612 at time 9318
Additional hops: 14831
Set signal latency stall time: 12
Reenqueueing errored packet 281958 at time 9325
Additional hops: 14840
Set signal latency stall time: 18
Reenqueueing errored packet 328015 at time 9331
Additional hops: 14849
Set signal latency stall time: 18
Additional hops: 14855
Set signal latency stall time: 12
Reenqueueing errored packet 329915 at time 9336
Additional hops: 14860
Set signal latency stall time: 10
Additional hops: 14864
Set signal latency stall time: 8
Additional hops: 14869
Set signal latency stall time: 10
Additional hops: 14872
Set signal latency stall time: 6
Reenqueueing errored packet 322535 at time 9345
Reenqueueing errored packet 293099 at time 9347
Reenqueueing errored packet 279483 at time 9347
Reenqueueing errored packet 354533 at time 9348
Additional hops: 14881
Set signal latency stall time: 18
Reenqueueing errored packet 306951 at time 9352
Additional hops: 14892
Set signal latency stall time: 22
Additional hops: 14899
Set signal latency stall time: 14
Additional hops: 14907
Set signal latency stall time: 16
Additional hops: 14914
Set signal latency stall time: 14
Additional hops: 14918
Set signal latency stall time: 8
Reenqueueing errored packet 243811 at time 9369
Reenqueueing errored packet 219818 at time 9371
Reenqueueing errored packet 319282 at time 9375
Reenqueueing errored packet 332334 at time 9376
Additional hops: 14927
Set signal latency stall time: 18
Additional hops: 14932
Set signal latency stall time: 10
Additional hops: 14942
Set signal latency stall time: 20
Additional hops: 14948
Set signal latency stall time: 12
Reenqueueing errored packet 287800 at time 9400
Additional hops: 14953
Set signal latency stall time: 10
Additional hops: 14964
Set signal latency stall time: 22
Additional hops: 14974
Set signal latency stall time: 20
Additional hops: 14979
Set signal latency stall time: 10
Additional hops: 14986
Set signal latency stall time: 14
Additional hops: 14992
Set signal latency stall time: 12
Additional hops: 15002
Set signal latency stall time: 20
Additional hops: 15005
Set signal latency stall time: 6
Reenqueueing errored packet 289224 at time 9436
Reenqueueing errored packet 341105 at time 9440
Additional hops: 15012
Set signal latency stall time: 14
Reenqueueing errored packet 237246 at time 9447
Additional hops: 15016
Set signal latency stall time: 8
Additional hops: 15022
Set signal latency stall time: 12
Reenqueueing errored packet 223794 at time 9455
Reenqueueing errored packet 339382 at time 9457
Additional hops: 15031
Set signal latency stall time: 18
Reenqueueing errored packet 348876 at time 9462
Additional hops: 15042
Set signal latency stall time: 22
Reenqueueing errored packet 351823 at time 9467
Additional hops: 15048
Set signal latency stall time: 12
Additional hops: 15054
Set signal latency stall time: 12
Additional hops: 15060
Set signal latency stall time: 12
Reenqueueing errored packet 293886 at time 9480
Reenqueueing errored packet 339946 at time 9480
Additional hops: 15065
Set signal latency stall time: 10
Reenqueueing errored packet 329971 at time 9487
Reenqueueing errored packet 207084 at time 9487
Additional hops: 15071
Set signal latency stall time: 12
Additional hops: 15081
Set signal latency stall time: 20
Reenqueueing errored packet 335374 at time 9495
Additional hops: 15090
Set signal latency stall time: 18
Additional hops: 15095
Set signal latency stall time: 10
Reenqueueing errored packet 336378 at time 9506
Additional hops: 15103
Set signal latency stall time: 16
Reenqueueing errored packet 348860 at time 9514
Reenqueueing errored packet 347160 at time 9515
Additional hops: 15106
Set signal latency stall time: 6
Additional hops: 15110
Set signal latency stall time: 8
Reenqueueing errored packet 329162 at time 9522
Reenqueueing errored packet 339637 at time 9523
Additional hops: 15115
Set signal latency stall time: 10
Reenqueueing errored packet 359802 at time 9527
Additional hops: 15122
Set signal latency stall time: 14
Additional hops: 15130
Set signal latency stall time: 16
Reenqueueing errored packet 293661 at time 9534
Reenqueueing errored packet 265609 at time 9547
Additional hops: 15136
Set signal latency stall time: 12
Reenqueueing errored packet 208081 at time 9549
Additional hops: 15150
Set signal latency stall time: 28
Additional hops: 15157
Set signal latency stall time: 14
Reenqueueing errored packet 324635 at time 9560
Additional hops: 15165
Set signal latency stall time: 16
Additional hops: 15173
Set signal latency stall time: 16
Reenqueueing errored packet 172323 at time 9578
Additional hops: 15179
Set signal latency stall time: 12
Additional hops: 15184
Set signal latency stall time: 10
Additional hops: 15188
Set signal latency stall time: 8
Reenqueueing errored packet 337002 at time 9590
Reenqueueing errored packet 179004 at time 9591
Reenqueueing errored packet 350681 at time 9593
Additional hops: 15192
Set signal latency stall time: 8
Additional hops: 15198
Set signal latency stall time: 12
Reenqueueing errored packet 351462 at time 9602
Additional hops: 15201
Set signal latency stall time: 6
Reenqueueing errored packet 294701 at time 9607
Additional hops: 15209
Set signal latency stall time: 16
Additional hops: 15214
Set signal latency stall time: 10
Additional hops: 15218
Set signal latency stall time: 8
Reenqueueing errored packet 374237 at time 9633
Additional hops: 15221
Set signal latency stall time: 6
Reenqueueing errored packet 332763 at time 9637
Additional hops: 15230
Set signal latency stall time: 18
Additional hops: 15234
Set signal latency stall time: 8
Reenqueueing errored packet 368851 at time 9643
Reenqueueing errored packet 325353 at time 9650
Additional hops: 15239
Set signal latency stall time: 10
Reenqueueing errored packet 229923 at time 9658
Additional hops: 15249
Set signal latency stall time: 20
Additional hops: 15254
Set signal latency stall time: 10
Reenqueueing errored packet 347824 at time 9662
Additional hops: 15266
Set signal latency stall time: 24
Additional hops: 15277
Set signal latency stall time: 22
Reenqueueing errored packet 346209 at time 9672
Additional hops: 15291
Set signal latency stall time: 28
Additional hops: 15301
Set signal latency stall time: 20
Additional hops: 15303
Set signal latency stall time: 4
Reenqueueing errored packet 379058 at time 9688
Reenqueueing errored packet 295664 at time 9694
Additional hops: 15310
Set signal latency stall time: 14
Reenqueueing errored packet 294573 at time 9703
Additional hops: 15323
Set signal latency stall time: 26
Additional hops: 15330
Set signal latency stall time: 14
Reenqueueing errored packet 223953 at time 9710
Reenqueueing errored packet 299845 at time 9714
Reenqueueing errored packet 289429 at time 9723
Additional hops: 15341
Set signal latency stall time: 22
Additional hops: 15344
Set signal latency stall time: 6
Additional hops: 15352
Set signal latency stall time: 16
Reenqueueing errored packet 346995 at time 9736
Additional hops: 15362
Set signal latency stall time: 20
Additional hops: 15370
Set signal latency stall time: 16
Additional hops: 15373
Set signal latency stall time: 6
Additional hops: 15378
Set signal latency stall time: 10
Additional hops: 15383
Set signal latency stall time: 10
Reenqueueing errored packet 178161 at time 9750
Additional hops: 15389
Set signal latency stall time: 12
Additional hops: 15395
Set signal latency stall time: 12
Reenqueueing errored packet 351093 at time 9754
Reenqueueing errored packet 304988 at time 9757
Reenqueueing errored packet 210041 at time 9758
Reenqueueing errored packet 355374 at time 9759
Reenqueueing errored packet 337281 at time 9761
Reenqueueing errored packet 342605 at time 9763
Reenqueueing errored packet 313031 at time 9764
Additional hops: 15402
Set signal latency stall time: 14
Additional hops: 15409
Set signal latency stall time: 14
Additional hops: 15418
Set signal latency stall time: 18
Additional hops: 15427
Set signal latency stall time: 18
Additional hops: 15432
Set signal latency stall time: 10
Additional hops: 15441
Set signal latency stall time: 18
Reenqueueing errored packet 236977 at time 9789
Reenqueueing errored packet 324018 at time 9789
Reenqueueing errored packet 263069 at time 9791
Reenqueueing errored packet 297847 at time 9794
Reenqueueing errored packet 297911 at time 9794
Additional hops: 15450
Set signal latency stall time: 18
Additional hops: 15453
Set signal latency stall time: 6
Additional hops: 15459
Set signal latency stall time: 12
Reenqueueing errored packet 301049 at time 9801
Reenqueueing errored packet 343193 at time 9812
Additional hops: 15466
Set signal latency stall time: 14
Reenqueueing errored packet 349883 at time 9817
Additional hops: 15474
Set signal latency stall time: 16
Additional hops: 15480
Set signal latency stall time: 12
Additional hops: 15487
Set signal latency stall time: 14
Additional hops: 15494
Set signal latency stall time: 14
Additional hops: 15497
Set signal latency stall time: 6
Reenqueueing errored packet 232467 at time 9831
Reenqueueing errored packet 322710 at time 9832
Reenqueueing errored packet 264531 at time 9835
Additional hops: 15503
Set signal latency stall time: 12
Reenqueueing errored packet 346591 at time 9838
Reenqueueing errored packet 353063 at time 9838
Additional hops: 15510
Set signal latency stall time: 14
Additional hops: 15519
Set signal latency stall time: 18
Additional hops: 15524
Set signal latency stall time: 10
Reenqueueing errored packet 370887 at time 9850
Reenqueueing errored packet 340464 at time 9855
Reenqueueing errored packet 316573 at time 9858
Additional hops: 15531
Set signal latency stall time: 14
Additional hops: 15541
Set signal latency stall time: 20
Additional hops: 15547
Set signal latency stall time: 12
Additional hops: 15552
Set signal latency stall time: 10
Additional hops: 15560
Set signal latency stall time: 16
Additional hops: 15570
Set signal latency stall time: 20
Reenqueueing errored packet 303589 at time 9873
Reenqueueing errored packet 354488 at time 9874
Additional hops: 15576
Set signal latency stall time: 12
Additional hops: 15581
Set signal latency stall time: 10
Reenqueueing errored packet 266148 at time 9882
Additional hops: 15590
Set signal latency stall time: 18
Additional hops: 15601
Set signal latency stall time: 22
Additional hops: 15608
Set signal latency stall time: 14
Reenqueueing errored packet 343844 at time 9889
Additional hops: 15619
Set signal latency stall time: 22
Reenqueueing errored packet 338805 at time 9903
Reenqueueing errored packet 331422 at time 9906
Reenqueueing errored packet 331655 at time 9914
Additional hops: 15628
Set signal latency stall time: 18
Additional hops: 15637
Set signal latency stall time: 18
Additional hops: 15643
Set signal latency stall time: 12
Additional hops: 15651
Set signal latency stall time: 16
Reenqueueing errored packet 366664 at time 9944
Additional hops: 15660
Set signal latency stall time: 18
Additional hops: 15669
Set signal latency stall time: 18
Additional hops: 15679
Set signal latency stall time: 20
Additional hops: 15686
Set signal latency stall time: 14
Additional hops: 15695
Set signal latency stall time: 18
Additional hops: 15697
Set signal latency stall time: 4
Reenqueueing errored packet 295785 at time 9965
Reenqueueing errored packet 303687 at time 9967
Reenqueueing errored packet 181847 at time 9970
Reenqueueing errored packet 363438 at time 9971
Additional hops: 15702
Set signal latency stall time: 10
Additional hops: 15709
Set signal latency stall time: 14
Reenqueueing errored packet 359258 at time 9980
Reenqueueing errored packet 358950 at time 9982
Reenqueueing errored packet 372239 at time 9986
Additional hops: 15721
Set signal latency stall time: 24
Additional hops: 15729
Set signal latency stall time: 16
Class 0:
Packet latency average = 1579.85
	minimum = 5
	maximum = 8290
Network latency average = 1391.32
	minimum = 5
	maximum = 6635
Slowest packet = 13920
Flit latency average = 1391.32
	minimum = 5
	maximum = 6635
Slowest flit = 176408
Fragmentation average = 0
	minimum = 0
	maximum = 0
Injected packet rate average = 0.617884
	minimum = 0.4261 (at node 22)
	maximum = 0.8615 (at node 12)
Accepted packet rate average = 0.502753
	minimum = 0.4813 (at node 21)
	maximum = 0.5163 (at node 39)
Injected flit rate average = 0.617884
	minimum = 0.4261 (at node 22)
	maximum = 0.8615 (at node 12)
Accepted flit rate average= 0.502753
	minimum = 0.4813 (at node 21)
	maximum = 0.5163 (at node 39)
Injected packet length average = 1
Accepted packet length average = 1
Total in-flight flits = 74241 (0 measured)
latency change    = 1
throughput change = 1
Average latency for class 0 exceeded 500 cycles. Aborting simulation.
Too many sample periods needed to converge
Simulation unstable, ending ...
Total run time 55.1029
