BEGIN Configuration File: examples/ecc_mesh88_config_1_0.150_packet_4
// $Id$

// Copyright (c) 2007-2015, Trustees of The Leland Stanford Junior University
// All rights reserved.
//
// Redistribution and use in source and binary forms, with or without
// modification, are permitted provided that the following conditions are met:
//
// Redistributions of source code must retain the above copyright notice, this
// list of conditions and the following disclaimer.
// Redistributions in binary form must reproduce the above copyright notice,
// this list of conditions and the following disclaimer in the documentation
// and/or other materials provided with the distribution.
//
// THIS SOFTWARE IS PROVIDED BY THE COPYRIGHT HOLDERS AND CONTRIBUTORS "AS IS"
// AND ANY EXPRESS OR IMPLIED WARRANTIES, INCLUDING, BUT NOT LIMITED TO, THE
// IMPLIED WARRANTIES OF MERCHANTABILITY AND FITNESS FOR A PARTICULAR PURPOSE
// ARE DISCLAIMED. IN NO EVENT SHALL THE COPYRIGHT OWNER OR CONTRIBUTORS BE
// LIABLE FOR ANY DIRECT, INDIRECT, INCIDENTAL, SPECIAL, EXEMPLARY, OR
// CONSEQUENTIAL DAMAGES (INCLUDING, BUT NOT LIMITED TO, PROCUREMENT OF
// SUBSTITUTE GOODS OR SERVICES; LOSS OF USE, DATA, OR PROFITS; OR BUSINESS
// INTERRUPTION) HOWEVER CAUSED AND ON ANY THEORY OF LIABILITY, WHETHER IN
// CONTRACT, STRICT LIABILITY, OR TORT (INCLUDING NEGLIGENCE OR OTHERWISE)
// ARISING IN ANY WAY OUT OF THE USE OF THIS SOFTWARE, EVEN IF ADVISED OF THE
// POSSIBILITY OF SUCH DAMAGE.

// Dragonfly
//




vc_buf_size = 256;


wait_for_tail_credit = 0;

//
// Router architecture
//
vc_allocator = separable_input_first; 
sw_allocator = separable_input_first;
alloc_iters  = 1;

credit_delay   = 2;
routing_delay  = 0;
vc_alloc_delay = 1;
sw_alloc_delay = 1;
st_final_delay = 1;

input_speedup     = 1;
output_speedup    = 1;
internal_speedup  = 2.0;


warmup_periods = 3;
sim_count          = 1;

sample_period  = 10000;  


routing_function = dor;
num_vcs     = 2;

priority = none;
traffic       = uniform; 

injection_rate = 0.15;
packet_size = 1;
injection_rate_uses_flits = 1;

topology = mesh;

k  = 8;
n  = 2;

fer = 4;
ecc = link;

watch_out=-;
//watch_file = watch.txt;

ecc = packet;

stats_out = examples/ecc_mesh88_config_1_0.150_packet_4.m;

END Configuration File: examples/ecc_mesh88_config_1_0.150_packet_4
Additional hops: 5
Set signal latency stall time: 10
Reenqueueing errored packet 467 at time 80
Additional hops: 11
Set signal latency stall time: 12
Reenqueueing errored packet 532 at time 93
Additional hops: 17
Set signal latency stall time: 12
Reenqueueing errored packet 5513 at time 616
Additional hops: 22
Set signal latency stall time: 10
Reenqueueing errored packet 5967 at time 660
Additional hops: 29
Set signal latency stall time: 14
Reenqueueing errored packet 7164 at time 794
Additional hops: 37
Set signal latency stall time: 16
Reenqueueing errored packet 7257 at time 811
Additional hops: 41
Set signal latency stall time: 8
Reenqueueing errored packet 8376 at time 911
Additional hops: 51
Set signal latency stall time: 20
Reenqueueing errored packet 8446 at time 950
Additional hops: 56
Set signal latency stall time: 10
Reenqueueing errored packet 10028 at time 1090
Additional hops: 62
Set signal latency stall time: 12
Reenqueueing errored packet 10945 at time 1197
Additional hops: 70
Set signal latency stall time: 16
Reenqueueing errored packet 12796 at time 1401
Additional hops: 81
Set signal latency stall time: 22
Reenqueueing errored packet 19231 at time 2067
Additional hops: 91
Set signal latency stall time: 20
Reenqueueing errored packet 21032 at time 2253
Additional hops: 102
Set signal latency stall time: 22
Reenqueueing errored packet 21399 at time 2297
Additional hops: 108
Set signal latency stall time: 12
Reenqueueing errored packet 24452 at time 2590
Additional hops: 116
Set signal latency stall time: 16
Additional hops: 122
Set signal latency stall time: 12
Reenqueueing errored packet 24520 at time 2607
Reenqueueing errored packet 24747 at time 2619
Additional hops: 129
Set signal latency stall time: 14
Reenqueueing errored packet 25660 at time 2726
Additional hops: 134
Set signal latency stall time: 10
Reenqueueing errored packet 27242 at time 2882
Additional hops: 137
Set signal latency stall time: 6
Reenqueueing errored packet 27949 at time 2945
Additional hops: 141
Set signal latency stall time: 8
Reenqueueing errored packet 28424 at time 2999
Additional hops: 152
Set signal latency stall time: 22
Reenqueueing errored packet 31020 at time 3302
Additional hops: 161
Set signal latency stall time: 18
Reenqueueing errored packet 31669 at time 3359
Additional hops: 169
Set signal latency stall time: 16
Reenqueueing errored packet 32846 at time 3479
Additional hops: 175
Set signal latency stall time: 12
Reenqueueing errored packet 35203 at time 3713
Additional hops: 180
Set signal latency stall time: 10
Reenqueueing errored packet 35737 at time 3762
Additional hops: 182
Set signal latency stall time: 4
Reenqueueing errored packet 41462 at time 4344
Additional hops: 188
Set signal latency stall time: 12
Reenqueueing errored packet 42680 at time 4492
Additional hops: 191
Set signal latency stall time: 6
Reenqueueing errored packet 44141 at time 4630
Additional hops: 199
Set signal latency stall time: 16
Reenqueueing errored packet 49135 at time 5164
Additional hops: 210
Set signal latency stall time: 22
Reenqueueing errored packet 51058 at time 5381
Additional hops: 217
Set signal latency stall time: 14
Reenqueueing errored packet 51370 at time 5397
Additional hops: 225
Set signal latency stall time: 16
Reenqueueing errored packet 54227 at time 5700
Additional hops: 230
Set signal latency stall time: 10
Reenqueueing errored packet 54507 at time 5713
Additional hops: 233
Set signal latency stall time: 6
Reenqueueing errored packet 56416 at time 5908
Additional hops: 240
Set signal latency stall time: 14
Reenqueueing errored packet 57156 at time 6005
Additional hops: 248
Set signal latency stall time: 16
Additional hops: 258
Set signal latency stall time: 20
Reenqueueing errored packet 60344 at time 6334
Additional hops: 268
Set signal latency stall time: 20
Reenqueueing errored packet 60423 at time 6353
Reenqueueing errored packet 60469 at time 6358
Additional hops: 275
Set signal latency stall time: 14
Reenqueueing errored packet 60974 at time 6396
Additional hops: 281
Set signal latency stall time: 12
Reenqueueing errored packet 69932 at time 7322
Additional hops: 290
Set signal latency stall time: 18
Additional hops: 294
Set signal latency stall time: 8
Reenqueueing errored packet 72351 at time 7587
Reenqueueing errored packet 72634 at time 7590
Additional hops: 302
Set signal latency stall time: 16
Reenqueueing errored packet 73932 at time 7744
Additional hops: 309
Set signal latency stall time: 14
Reenqueueing errored packet 74761 at time 7825
Additional hops: 317
Set signal latency stall time: 16
Additional hops: 324
Set signal latency stall time: 14
Reenqueueing errored packet 76411 at time 8010
Reenqueueing errored packet 76602 at time 8022
Additional hops: 330
Set signal latency stall time: 12
Reenqueueing errored packet 78214 at time 8180
Additional hops: 339
Set signal latency stall time: 18
Reenqueueing errored packet 78477 at time 8225
Additional hops: 346
Set signal latency stall time: 14
Reenqueueing errored packet 79763 at time 8345
Additional hops: 351
Set signal latency stall time: 10
Reenqueueing errored packet 80703 at time 8434
Additional hops: 358
Set signal latency stall time: 14
Reenqueueing errored packet 81749 at time 8547
Additional hops: 368
Set signal latency stall time: 20
Reenqueueing errored packet 82701 at time 8668
Additional hops: 373
Set signal latency stall time: 10
Additional hops: 382
Set signal latency stall time: 18
Reenqueueing errored packet 86658 at time 9054
Reenqueueing errored packet 86608 at time 9068
Additional hops: 390
Set signal latency stall time: 16
Reenqueueing errored packet 90092 at time 9423
Additional hops: 397
Set signal latency stall time: 14
Additional hops: 405
Set signal latency stall time: 16
Reenqueueing errored packet 90836 at time 9495
Reenqueueing errored packet 90829 at time 9499
Additional hops: 417
Set signal latency stall time: 24
Reenqueueing errored packet 92327 at time 9684
Additional hops: 426
Set signal latency stall time: 18
Reenqueueing errored packet 93928 at time 9832
Additional hops: 438
Set signal latency stall time: 24
Additional hops: 449
Set signal latency stall time: 22
Reenqueueing errored packet 94492 at time 9901
Reenqueueing errored packet 94694 at time 9918
Class 0:
Packet latency average = 21.2051
	minimum = 5
	maximum = 104
Network latency average = 21.1793
	minimum = 5
	maximum = 53
Slowest packet = 354
Flit latency average = 21.1793
	minimum = 5
	maximum = 53
Slowest flit = 20554
Fragmentation average = 0
	minimum = 0
	maximum = 0
Injected packet rate average = 0.150234
	minimum = 0.1433 (at node 27)
	maximum = 0.1579 (at node 1)
Accepted packet rate average = 0.149944
	minimum = 0.1417 (at node 52)
	maximum = 0.1564 (at node 53)
Injected flit rate average = 0.150234
	minimum = 0.1433 (at node 27)
	maximum = 0.1579 (at node 1)
Accepted flit rate average= 0.149944
	minimum = 0.1417 (at node 52)
	maximum = 0.1564 (at node 53)
Injected packet length average = 1
Accepted packet length average = 1
Total in-flight flits = 186 (0 measured)
latency change    = 1
throughput change = 1
Additional hops: 455
Set signal latency stall time: 12
Reenqueueing errored packet 96013 at time 10025
Additional hops: 458
Set signal latency stall time: 6
Reenqueueing errored packet 96760 at time 10091
Additional hops: 464
Set signal latency stall time: 12
Reenqueueing errored packet 98724 at time 10308
Additional hops: 473
Set signal latency stall time: 18
Reenqueueing errored packet 100256 at time 10474
Additional hops: 483
Set signal latency stall time: 20
Reenqueueing errored packet 101343 at time 10593
Additional hops: 492
Set signal latency stall time: 18
Reenqueueing errored packet 103353 at time 10800
Additional hops: 498
Set signal latency stall time: 12
Reenqueueing errored packet 104126 at time 10866
Additional hops: 501
Set signal latency stall time: 6
Reenqueueing errored packet 105455 at time 10991
Additional hops: 504
Set signal latency stall time: 6
Reenqueueing errored packet 106498 at time 11099
Additional hops: 512
Set signal latency stall time: 16
Reenqueueing errored packet 107157 at time 11189
Additional hops: 516
Set signal latency stall time: 8
Reenqueueing errored packet 108108 at time 11273
Additional hops: 525
Set signal latency stall time: 18
Additional hops: 535
Set signal latency stall time: 20
Additional hops: 542
Set signal latency stall time: 14
Reenqueueing errored packet 108176 at time 11307
Reenqueueing errored packet 108332 at time 11313
Reenqueueing errored packet 108216 at time 11317
Additional hops: 550
Set signal latency stall time: 16
Reenqueueing errored packet 108562 at time 11342
Additional hops: 556
Set signal latency stall time: 12
Reenqueueing errored packet 110494 at time 11535
Additional hops: 562
Set signal latency stall time: 12
Reenqueueing errored packet 110673 at time 11554
Additional hops: 565
Set signal latency stall time: 6
Reenqueueing errored packet 111156 at time 11588
Additional hops: 575
Set signal latency stall time: 20
Reenqueueing errored packet 114479 at time 11971
Additional hops: 580
Set signal latency stall time: 10
Reenqueueing errored packet 115754 at time 12080
Additional hops: 585
Set signal latency stall time: 10
Reenqueueing errored packet 116790 at time 12191
Additional hops: 593
Set signal latency stall time: 16
Reenqueueing errored packet 117297 at time 12259
Additional hops: 600
Set signal latency stall time: 14
Reenqueueing errored packet 117942 at time 12321
Additional hops: 609
Set signal latency stall time: 18
Additional hops: 618
Set signal latency stall time: 18
Additional hops: 623
Set signal latency stall time: 10
Reenqueueing errored packet 118263 at time 12346
Reenqueueing errored packet 118067 at time 12346
Reenqueueing errored packet 118122 at time 12351
Additional hops: 634
Set signal latency stall time: 22
Reenqueueing errored packet 118432 at time 12395
Additional hops: 642
Set signal latency stall time: 16
Reenqueueing errored packet 118849 at time 12420
Additional hops: 648
Set signal latency stall time: 12
Reenqueueing errored packet 119674 at time 12500
Additional hops: 652
Set signal latency stall time: 8
Reenqueueing errored packet 122098 at time 12748
Additional hops: 661
Set signal latency stall time: 18
Reenqueueing errored packet 123613 at time 12931
Additional hops: 668
Set signal latency stall time: 14
Reenqueueing errored packet 124402 at time 13005
Additional hops: 680
Set signal latency stall time: 24
Reenqueueing errored packet 124443 at time 13036
Additional hops: 685
Set signal latency stall time: 10
Reenqueueing errored packet 129044 at time 13481
Additional hops: 695
Set signal latency stall time: 20
Reenqueueing errored packet 132385 at time 13867
Additional hops: 697
Set signal latency stall time: 4
Reenqueueing errored packet 132879 at time 13875
Additional hops: 703
Set signal latency stall time: 12
Reenqueueing errored packet 134936 at time 14110
Additional hops: 708
Set signal latency stall time: 10
Reenqueueing errored packet 138064 at time 14431
Additional hops: 719
Set signal latency stall time: 22
Additional hops: 727
Set signal latency stall time: 16
Reenqueueing errored packet 138039 at time 14460
Reenqueueing errored packet 138279 at time 14468
Additional hops: 730
Set signal latency stall time: 6
Reenqueueing errored packet 140545 at time 14677
Additional hops: 734
Set signal latency stall time: 8
Reenqueueing errored packet 141029 at time 14735
Additional hops: 741
Set signal latency stall time: 14
Reenqueueing errored packet 141603 at time 14812
Additional hops: 748
Set signal latency stall time: 14
Reenqueueing errored packet 144423 at time 15113
Additional hops: 762
Set signal latency stall time: 28
Reenqueueing errored packet 144830 at time 15195
Additional hops: 769
Set signal latency stall time: 14
Reenqueueing errored packet 146629 at time 15347
Additional hops: 778
Set signal latency stall time: 18
Reenqueueing errored packet 147336 at time 15434
Additional hops: 785
Set signal latency stall time: 14
Reenqueueing errored packet 148477 at time 15541
Additional hops: 796
Set signal latency stall time: 22
Reenqueueing errored packet 149528 at time 15669
Additional hops: 802
Set signal latency stall time: 12
Reenqueueing errored packet 150002 at time 15693
Additional hops: 806
Set signal latency stall time: 8
Reenqueueing errored packet 152486 at time 15944
Additional hops: 817
Set signal latency stall time: 22
Reenqueueing errored packet 153060 at time 16041
Additional hops: 822
Set signal latency stall time: 10
Reenqueueing errored packet 154097 at time 16119
Additional hops: 828
Set signal latency stall time: 12
Reenqueueing errored packet 154253 at time 16140
Additional hops: 832
Set signal latency stall time: 8
Reenqueueing errored packet 156028 at time 16320
Additional hops: 835
Set signal latency stall time: 6
Reenqueueing errored packet 158225 at time 16545
Additional hops: 842
Set signal latency stall time: 14
Reenqueueing errored packet 159378 at time 16687
Additional hops: 848
Set signal latency stall time: 12
Reenqueueing errored packet 162669 at time 17043
Additional hops: 852
Set signal latency stall time: 8
Additional hops: 857
Set signal latency stall time: 10
Reenqueueing errored packet 163851 at time 17154
Reenqueueing errored packet 163841 at time 17158
Additional hops: 869
Set signal latency stall time: 24
Reenqueueing errored packet 164663 at time 17282
Additional hops: 874
Set signal latency stall time: 10
Reenqueueing errored packet 165211 at time 17303
Additional hops: 879
Set signal latency stall time: 10
Reenqueueing errored packet 165716 at time 17354
Additional hops: 890
Set signal latency stall time: 22
Reenqueueing errored packet 166400 at time 17450
Additional hops: 899
Set signal latency stall time: 18
Reenqueueing errored packet 167709 at time 17573
Additional hops: 906
Set signal latency stall time: 14
Reenqueueing errored packet 168598 at time 17656
Additional hops: 913
Set signal latency stall time: 14
Reenqueueing errored packet 169062 at time 17704
Additional hops: 920
Set signal latency stall time: 14
Reenqueueing errored packet 171294 at time 17928
Additional hops: 931
Set signal latency stall time: 22
Reenqueueing errored packet 171550 at time 17973
Additional hops: 943
Set signal latency stall time: 24
Reenqueueing errored packet 173943 at time 18221
Additional hops: 949
Set signal latency stall time: 12
Reenqueueing errored packet 174892 at time 18283
Additional hops: 958
Set signal latency stall time: 18
Reenqueueing errored packet 175799 at time 18394
Additional hops: 965
Set signal latency stall time: 14
Reenqueueing errored packet 178722 at time 18683
Additional hops: 973
Set signal latency stall time: 16
Reenqueueing errored packet 182010 at time 19020
Additional hops: 979
Set signal latency stall time: 12
Reenqueueing errored packet 183260 at time 19146
Additional hops: 989
Set signal latency stall time: 20
Reenqueueing errored packet 183938 at time 19238
Additional hops: 994
Set signal latency stall time: 10
Reenqueueing errored packet 186217 at time 19446
Additional hops: 1002
Set signal latency stall time: 16
Reenqueueing errored packet 186703 at time 19512
Additional hops: 1009
Set signal latency stall time: 14
Reenqueueing errored packet 187383 at time 19573
Additional hops: 1018
Set signal latency stall time: 18
Reenqueueing errored packet 187542 at time 19601
Additional hops: 1025
Set signal latency stall time: 14
Reenqueueing errored packet 188916 at time 19737
Additional hops: 1040
Set signal latency stall time: 30
Reenqueueing errored packet 189443 at time 19836
Additional hops: 1044
Set signal latency stall time: 8
Reenqueueing errored packet 191489 at time 19997
Class 0:
Packet latency average = 21.2189
	minimum = 5
	maximum = 126
Network latency average = 21.1889
	minimum = 5
	maximum = 53
Slowest packet = 354
Flit latency average = 21.1889
	minimum = 5
	maximum = 53
Slowest flit = 20554
Fragmentation average = 0
	minimum = 0
	maximum = 0
Injected packet rate average = 0.149905
	minimum = 0.144 (at node 24)
	maximum = 0.1566 (at node 51)
Accepted packet rate average = 0.14975
	minimum = 0.14465 (at node 33)
	maximum = 0.15645 (at node 53)
Injected flit rate average = 0.149905
	minimum = 0.144 (at node 24)
	maximum = 0.1566 (at node 51)
Accepted flit rate average= 0.14975
	minimum = 0.14465 (at node 33)
	maximum = 0.15645 (at node 53)
Injected packet length average = 1
Accepted packet length average = 1
Total in-flight flits = 199 (0 measured)
latency change    = 0.000647902
throughput change = 0.00129382
Additional hops: 1053
Set signal latency stall time: 18
Reenqueueing errored packet 192470 at time 20126
Additional hops: 1061
Set signal latency stall time: 16
Reenqueueing errored packet 194031 at time 20284
Additional hops: 1065
Set signal latency stall time: 8
Reenqueueing errored packet 194769 at time 20339
Additional hops: 1075
Set signal latency stall time: 20
Reenqueueing errored packet 195217 at time 20414
Additional hops: 1087
Set signal latency stall time: 24
Additional hops: 1095
Set signal latency stall time: 16
Reenqueueing errored packet 197810 at time 20697
Reenqueueing errored packet 198031 at time 20702
Additional hops: 1098
Set signal latency stall time: 6
Reenqueueing errored packet 199331 at time 20810
Additional hops: 1104
Set signal latency stall time: 12
Reenqueueing errored packet 199677 at time 20860
Additional hops: 1113
Set signal latency stall time: 18
Reenqueueing errored packet 200757 at time 20984
Additional hops: 1116
Set signal latency stall time: 6
Reenqueueing errored packet 201753 at time 21059
Additional hops: 1120
Set signal latency stall time: 8
Reenqueueing errored packet 203150 at time 21209
Additional hops: 1129
Set signal latency stall time: 18
Reenqueueing errored packet 203378 at time 21258
Additional hops: 1139
Set signal latency stall time: 20
Additional hops: 1147
Set signal latency stall time: 16
Reenqueueing errored packet 206074 at time 21542
Reenqueueing errored packet 206214 at time 21546
Additional hops: 1152
Set signal latency stall time: 10
Reenqueueing errored packet 206810 at time 21596
Additional hops: 1155
Set signal latency stall time: 6
Reenqueueing errored packet 217839 at time 22736
Additional hops: 1166
Set signal latency stall time: 22
Reenqueueing errored packet 220723 at time 23081
Additional hops: 1171
Set signal latency stall time: 10
Reenqueueing errored packet 222004 at time 23187
Additional hops: 1182
Set signal latency stall time: 22
Reenqueueing errored packet 223664 at time 23391
Additional hops: 1190
Set signal latency stall time: 16
Reenqueueing errored packet 224511 at time 23466
Additional hops: 1196
Set signal latency stall time: 12
Reenqueueing errored packet 225366 at time 23546
Additional hops: 1203
Set signal latency stall time: 14
Reenqueueing errored packet 227108 at time 23738
Additional hops: 1216
Set signal latency stall time: 26
Reenqueueing errored packet 227779 at time 23839
Additional hops: 1228
Set signal latency stall time: 24
Reenqueueing errored packet 229901 at time 24053
Additional hops: 1232
Set signal latency stall time: 8
Reenqueueing errored packet 232848 at time 24321
Additional hops: 1241
Set signal latency stall time: 18
Reenqueueing errored packet 236647 at time 24737
Additional hops: 1249
Set signal latency stall time: 16
Reenqueueing errored packet 237210 at time 24789
Additional hops: 1251
Set signal latency stall time: 4
Reenqueueing errored packet 238293 at time 24870
Additional hops: 1256
Set signal latency stall time: 10
Reenqueueing errored packet 239328 at time 24994
Additional hops: 1259
Set signal latency stall time: 6
Reenqueueing errored packet 239605 at time 25012
Additional hops: 1265
Set signal latency stall time: 12
Reenqueueing errored packet 240265 at time 25094
Additional hops: 1270
Set signal latency stall time: 10
Reenqueueing errored packet 241085 at time 25178
Additional hops: 1280
Set signal latency stall time: 20
Reenqueueing errored packet 242218 at time 25321
Additional hops: 1289
Set signal latency stall time: 18
Reenqueueing errored packet 242620 at time 25356
Additional hops: 1297
Set signal latency stall time: 16
Additional hops: 1306
Set signal latency stall time: 18
Reenqueueing errored packet 247784 at time 25892
Reenqueueing errored packet 247814 at time 25899
Additional hops: 1311
Set signal latency stall time: 10
Reenqueueing errored packet 249581 at time 26057
Additional hops: 1315
Set signal latency stall time: 8
Reenqueueing errored packet 253791 at time 26497
Additional hops: 1320
Set signal latency stall time: 10
Reenqueueing errored packet 254225 at time 26548
Additional hops: 1327
Set signal latency stall time: 14
Additional hops: 1334
Set signal latency stall time: 14
Reenqueueing errored packet 255988 at time 26741
Reenqueueing errored packet 256012 at time 26743
Additional hops: 1338
Set signal latency stall time: 8
Reenqueueing errored packet 256243 at time 26752
Additional hops: 1346
Set signal latency stall time: 16
Reenqueueing errored packet 260498 at time 27217
Additional hops: 1349
Set signal latency stall time: 6
Reenqueueing errored packet 261280 at time 27269
Additional hops: 1360
Set signal latency stall time: 22
Reenqueueing errored packet 261615 at time 27344
Additional hops: 1371
Set signal latency stall time: 22
Reenqueueing errored packet 261968 at time 27381
Additional hops: 1381
Set signal latency stall time: 20
Reenqueueing errored packet 266188 at time 27805
Additional hops: 1389
Set signal latency stall time: 16
Reenqueueing errored packet 266645 at time 27841
Additional hops: 1402
Set signal latency stall time: 26
Reenqueueing errored packet 268202 at time 28028
Additional hops: 1408
Set signal latency stall time: 12
Reenqueueing errored packet 269283 at time 28100
Additional hops: 1412
Set signal latency stall time: 8
Reenqueueing errored packet 270910 at time 28257
Additional hops: 1421
Set signal latency stall time: 18
Reenqueueing errored packet 271005 at time 28293
Additional hops: 1427
Set signal latency stall time: 12
Reenqueueing errored packet 272107 at time 28390
Additional hops: 1436
Set signal latency stall time: 18
Additional hops: 1441
Set signal latency stall time: 10
Reenqueueing errored packet 273880 at time 28594
Reenqueueing errored packet 274149 at time 28602
Additional hops: 1453
Set signal latency stall time: 24
Reenqueueing errored packet 276972 at time 28934
Additional hops: 1462
Set signal latency stall time: 18
Reenqueueing errored packet 283639 at time 29608
Additional hops: 1467
Set signal latency stall time: 10
Reenqueueing errored packet 285530 at time 29783
Class 0:
Packet latency average = 21.146
	minimum = 5
	maximum = 113
Network latency average = 21.1215
	minimum = 5
	maximum = 52
Slowest packet = 191531
Flit latency average = 21.1215
	minimum = 5
	maximum = 52
Slowest flit = 205899
Fragmentation average = 0
	minimum = 0
	maximum = 0
Injected packet rate average = 0.150377
	minimum = 0.1405 (at node 57)
	maximum = 0.1581 (at node 44)
Accepted packet rate average = 0.150359
	minimum = 0.1399 (at node 21)
	maximum = 0.1568 (at node 49)
Injected flit rate average = 0.150377
	minimum = 0.1405 (at node 57)
	maximum = 0.1581 (at node 44)
Accepted flit rate average= 0.150359
	minimum = 0.1399 (at node 21)
	maximum = 0.1568 (at node 49)
Injected packet length average = 1
Accepted packet length average = 1
Total in-flight flits = 210 (0 measured)
latency change    = 0.00344776
throughput change = 0.00405279
Warmed up ...Time used is 30000 cycles
Additional hops: 1474
Set signal latency stall time: 14
Reenqueueing errored packet 288203 at time 30065
Additional hops: 1481
Set signal latency stall time: 14
Reenqueueing errored packet 292441 at time 30500
Additional hops: 1492
Set signal latency stall time: 22
Reenqueueing errored packet 292588 at time 30536
Additional hops: 1498
Set signal latency stall time: 12
Reenqueueing errored packet 293268 at time 30577
Additional hops: 1506
Set signal latency stall time: 16
Reenqueueing errored packet 293999 at time 30663
Additional hops: 1514
Set signal latency stall time: 16
Reenqueueing errored packet 294661 at time 30729
Additional hops: 1524
Set signal latency stall time: 20
Reenqueueing errored packet 295864 at time 30861
Additional hops: 1531
Set signal latency stall time: 14
Reenqueueing errored packet 298102 at time 31076
Additional hops: 1537
Set signal latency stall time: 12
Reenqueueing errored packet 299219 at time 31186
Additional hops: 1547
Set signal latency stall time: 20
Reenqueueing errored packet 300024 at time 31288
Additional hops: 1558
Set signal latency stall time: 22
Reenqueueing errored packet 303977 at time 31703
Additional hops: 1567
Set signal latency stall time: 18
Reenqueueing errored packet 305957 at time 31901
Additional hops: 1570
Set signal latency stall time: 6
Reenqueueing errored packet 306869 at time 31966
Additional hops: 1578
Set signal latency stall time: 16
Reenqueueing errored packet 307977 at time 32107
Additional hops: 1587
Set signal latency stall time: 18
Reenqueueing errored packet 308777 at time 32198
Additional hops: 1591
Set signal latency stall time: 8
Additional hops: 1603
Set signal latency stall time: 24
Reenqueueing errored packet 309252 at time 32219
Reenqueueing errored packet 309092 at time 32242
Additional hops: 1610
Set signal latency stall time: 14
Reenqueueing errored packet 310329 at time 32342
Additional hops: 1614
Set signal latency stall time: 8
Reenqueueing errored packet 312489 at time 32556
Additional hops: 1617
Set signal latency stall time: 6
Reenqueueing errored packet 314668 at time 32778
Additional hops: 1625
Set signal latency stall time: 16
Reenqueueing errored packet 317382 at time 33091
Additional hops: 1629
Set signal latency stall time: 8
Reenqueueing errored packet 318059 at time 33144
Additional hops: 1636
Set signal latency stall time: 14
Reenqueueing errored packet 324754 at time 33856
Additional hops: 1643
Set signal latency stall time: 14
Reenqueueing errored packet 326476 at time 34034
Additional hops: 1652
Set signal latency stall time: 18
Reenqueueing errored packet 326712 at time 34069
Additional hops: 1665
Set signal latency stall time: 26
Reenqueueing errored packet 330555 at time 34486
Additional hops: 1674
Set signal latency stall time: 18
Reenqueueing errored packet 331114 at time 34525
Additional hops: 1676
Set signal latency stall time: 4
Reenqueueing errored packet 331627 at time 34544
Additional hops: 1680
Set signal latency stall time: 8
Reenqueueing errored packet 332702 at time 34665
Additional hops: 1690
Set signal latency stall time: 20
Reenqueueing errored packet 334605 at time 34904
Additional hops: 1694
Set signal latency stall time: 8
Reenqueueing errored packet 335098 at time 34926
Additional hops: 1701
Set signal latency stall time: 14
Reenqueueing errored packet 335333 at time 34968
Additional hops: 1705
Set signal latency stall time: 8
Reenqueueing errored packet 337053 at time 35128
Additional hops: 1712
Set signal latency stall time: 14
Reenqueueing errored packet 338962 at time 35342
Additional hops: 1719
Set signal latency stall time: 14
Additional hops: 1732
Set signal latency stall time: 26
Reenqueueing errored packet 340441 at time 35494
Reenqueueing errored packet 340375 at time 35518
Additional hops: 1738
Set signal latency stall time: 12
Reenqueueing errored packet 341045 at time 35557
Additional hops: 1745
Set signal latency stall time: 14
Reenqueueing errored packet 342791 at time 35744
Additional hops: 1749
Set signal latency stall time: 8
Reenqueueing errored packet 343122 at time 35762
Additional hops: 1758
Set signal latency stall time: 18
Additional hops: 1764
Set signal latency stall time: 12
Reenqueueing errored packet 343651 at time 35846
Reenqueueing errored packet 343919 at time 35858
Additional hops: 1775
Set signal latency stall time: 22
Reenqueueing errored packet 344445 at time 35940
Additional hops: 1778
Set signal latency stall time: 6
Reenqueueing errored packet 345607 at time 36014
Additional hops: 1786
Set signal latency stall time: 16
Reenqueueing errored packet 349321 at time 36430
Additional hops: 1798
Set signal latency stall time: 24
Reenqueueing errored packet 349443 at time 36465
Additional hops: 1806
Set signal latency stall time: 16
Reenqueueing errored packet 351927 at time 36700
Additional hops: 1815
Set signal latency stall time: 18
Reenqueueing errored packet 352404 at time 36753
Additional hops: 1828
Set signal latency stall time: 26
Reenqueueing errored packet 353427 at time 36880
Additional hops: 1834
Set signal latency stall time: 12
Reenqueueing errored packet 354910 at time 37000
Additional hops: 1839
Set signal latency stall time: 10
Reenqueueing errored packet 358955 at time 37408
Additional hops: 1843
Set signal latency stall time: 8
Reenqueueing errored packet 360990 at time 37611
Additional hops: 1852
Set signal latency stall time: 18
Reenqueueing errored packet 361040 at time 37643
Additional hops: 1859
Set signal latency stall time: 14
Reenqueueing errored packet 364407 at time 37979
Additional hops: 1867
Set signal latency stall time: 16
Reenqueueing errored packet 368534 at time 38410
Additional hops: 1873
Set signal latency stall time: 12
Reenqueueing errored packet 369144 at time 38465
Additional hops: 1880
Set signal latency stall time: 14
Reenqueueing errored packet 369265 at time 38482
Additional hops: 1889
Set signal latency stall time: 18
Reenqueueing errored packet 370639 at time 38632
Additional hops: 1895
Set signal latency stall time: 12
Reenqueueing errored packet 372292 at time 38795
Additional hops: 1902
Set signal latency stall time: 14
Additional hops: 1906
Set signal latency stall time: 8
Reenqueueing errored packet 374905 at time 39077
Reenqueueing errored packet 375135 at time 39085
Additional hops: 1914
Set signal latency stall time: 16
Additional hops: 1917
Set signal latency stall time: 6
Reenqueueing errored packet 380887 at time 39688
Reenqueueing errored packet 380719 at time 39695
Additional hops: 1923
Set signal latency stall time: 12
Reenqueueing errored packet 382609 at time 39882
Additional hops: 1930
Set signal latency stall time: 14
Additional hops: 1935
Set signal latency stall time: 10
Reenqueueing errored packet 382903 at time 39919
Reenqueueing errored packet 383011 at time 39921
Class 0:
Packet latency average = 21.1869
	minimum = 5
	maximum = 112
Network latency average = 21.1602
	minimum = 5
	maximum = 54
Slowest packet = 288075
Flit latency average = 21.1674
	minimum = 5
	maximum = 54
Slowest flit = 289194
Fragmentation average = 0
	minimum = 0
	maximum = 0
Injected packet rate average = 0.15032
	minimum = 0.1413 (at node 6)
	maximum = 0.1566 (at node 44)
Accepted packet rate average = 0.150323
	minimum = 0.1445 (at node 1)
	maximum = 0.1618 (at node 52)
Injected flit rate average = 0.15032
	minimum = 0.1413 (at node 6)
	maximum = 0.1566 (at node 44)
Accepted flit rate average= 0.150323
	minimum = 0.1445 (at node 1)
	maximum = 0.1618 (at node 52)
Injected packet length average = 1
Accepted packet length average = 1
Total in-flight flits = 208 (208 measured)
latency change    = 0.0019331
throughput change = 0.000239068
Additional hops: 1944
Set signal latency stall time: 18
Reenqueueing errored packet 385009 at time 40143
Additional hops: 1950
Set signal latency stall time: 12
Reenqueueing errored packet 386088 at time 40244
Additional hops: 1956
Set signal latency stall time: 12
Reenqueueing errored packet 387297 at time 40367
Additional hops: 1958
Set signal latency stall time: 4
Reenqueueing errored packet 392496 at time 40889
Additional hops: 1964
Set signal latency stall time: 12
Reenqueueing errored packet 392478 at time 40907
Additional hops: 1970
Set signal latency stall time: 12
Reenqueueing errored packet 393035 at time 40969
Additional hops: 1977
Set signal latency stall time: 14
Reenqueueing errored packet 393758 at time 41047
Additional hops: 1984
Set signal latency stall time: 14
Reenqueueing errored packet 394209 at time 41090
Additional hops: 1993
Set signal latency stall time: 18
Reenqueueing errored packet 402154 at time 41928
Additional hops: 2001
Set signal latency stall time: 16
Reenqueueing errored packet 404165 at time 42132
Additional hops: 2009
Set signal latency stall time: 16
Reenqueueing errored packet 405844 at time 42309
Additional hops: 2014
Set signal latency stall time: 10
Additional hops: 2021
Set signal latency stall time: 14
Reenqueueing errored packet 406930 at time 42403
Reenqueueing errored packet 406997 at time 42417
Additional hops: 2032
Set signal latency stall time: 22
Reenqueueing errored packet 407564 at time 42497
Additional hops: 2042
Set signal latency stall time: 20
Reenqueueing errored packet 408937 at time 42636
Additional hops: 2047
Set signal latency stall time: 10
Reenqueueing errored packet 412930 at time 43027
Additional hops: 2053
Set signal latency stall time: 12
Reenqueueing errored packet 414844 at time 43234
Additional hops: 2063
Set signal latency stall time: 20
Reenqueueing errored packet 415533 at time 43326
Additional hops: 2074
Set signal latency stall time: 22
Reenqueueing errored packet 417462 at time 43534
Additional hops: 2084
Set signal latency stall time: 20
Reenqueueing errored packet 417972 at time 43584
Additional hops: 2092
Set signal latency stall time: 16
Reenqueueing errored packet 419183 at time 43699
Additional hops: 2102
Set signal latency stall time: 20
Additional hops: 2112
Set signal latency stall time: 20
Reenqueueing errored packet 419962 at time 43793
Reenqueueing errored packet 419947 at time 43794
Additional hops: 2124
Set signal latency stall time: 24
Reenqueueing errored packet 422142 at time 44036
Additional hops: 2125
Set signal latency stall time: 2
Reenqueueing errored packet 423989 at time 44177
Additional hops: 2135
Set signal latency stall time: 20
Reenqueueing errored packet 425783 at time 44412
Additional hops: 2143
Set signal latency stall time: 16
Reenqueueing errored packet 426605 at time 44496
Additional hops: 2153
Set signal latency stall time: 20
Additional hops: 2158
Set signal latency stall time: 10
Reenqueueing errored packet 426965 at time 44518
Reenqueueing errored packet 426829 at time 44526
Additional hops: 2164
Set signal latency stall time: 12
Reenqueueing errored packet 427536 at time 44581
Additional hops: 2179
Set signal latency stall time: 30
Reenqueueing errored packet 428933 at time 44777
Additional hops: 2188
Set signal latency stall time: 18
Reenqueueing errored packet 430084 at time 44868
Additional hops: 2195
Set signal latency stall time: 14
Reenqueueing errored packet 432592 at time 45124
Additional hops: 2203
Set signal latency stall time: 16
Reenqueueing errored packet 433343 at time 45207
Additional hops: 2205
Set signal latency stall time: 4
Reenqueueing errored packet 433938 at time 45239
Additional hops: 2214
Set signal latency stall time: 18
Reenqueueing errored packet 436948 at time 45584
Additional hops: 2221
Set signal latency stall time: 14
Reenqueueing errored packet 437486 at time 45627
Additional hops: 2229
Set signal latency stall time: 16
Reenqueueing errored packet 440034 at time 45894
Additional hops: 2239
Set signal latency stall time: 20
Reenqueueing errored packet 442274 at time 46131
Additional hops: 2246
Set signal latency stall time: 14
Reenqueueing errored packet 442791 at time 46169
Additional hops: 2253
Set signal latency stall time: 14
Reenqueueing errored packet 445816 at time 46489
Additional hops: 2258
Set signal latency stall time: 10
Additional hops: 2259
Set signal latency stall time: 2
Reenqueueing errored packet 446048 at time 46504
Reenqueueing errored packet 446246 at time 46505
Additional hops: 2262
Set signal latency stall time: 6
Reenqueueing errored packet 448743 at time 46776
Additional hops: 2271
Set signal latency stall time: 18
Reenqueueing errored packet 448719 at time 46802
Additional hops: 2283
Set signal latency stall time: 24
Reenqueueing errored packet 449721 at time 46922
Additional hops: 2292
Set signal latency stall time: 18
Reenqueueing errored packet 451505 at time 47092
Additional hops: 2294
Set signal latency stall time: 4
Reenqueueing errored packet 452119 at time 47125
Additional hops: 2304
Set signal latency stall time: 20
Reenqueueing errored packet 452433 at time 47196
Additional hops: 2314
Set signal latency stall time: 20
Reenqueueing errored packet 453191 at time 47276
Additional hops: 2317
Set signal latency stall time: 6
Reenqueueing errored packet 454780 at time 47407
Additional hops: 2323
Set signal latency stall time: 12
Reenqueueing errored packet 455222 at time 47467
Additional hops: 2333
Set signal latency stall time: 20
Reenqueueing errored packet 456826 at time 47653
Additional hops: 2340
Set signal latency stall time: 14
Reenqueueing errored packet 458224 at time 47783
Additional hops: 2346
Set signal latency stall time: 12
Reenqueueing errored packet 458771 at time 47837
Additional hops: 2354
Set signal latency stall time: 16
Reenqueueing errored packet 459812 at time 47958
Additional hops: 2361
Set signal latency stall time: 14
Reenqueueing errored packet 460919 at time 48069
Additional hops: 2365
Set signal latency stall time: 8
Reenqueueing errored packet 461167 at time 48083
Additional hops: 2366
Set signal latency stall time: 2
Reenqueueing errored packet 461785 at time 48132
Additional hops: 2373
Set signal latency stall time: 14
Additional hops: 2386
Set signal latency stall time: 26
Reenqueueing errored packet 461900 at time 48173
Reenqueueing errored packet 461743 at time 48186
Additional hops: 2392
Set signal latency stall time: 12
Reenqueueing errored packet 462342 at time 48212
Additional hops: 2403
Set signal latency stall time: 22
Reenqueueing errored packet 462721 at time 48279
Additional hops: 2409
Set signal latency stall time: 12
Reenqueueing errored packet 463739 at time 48358
Additional hops: 2418
Set signal latency stall time: 18
Reenqueueing errored packet 464112 at time 48415
Additional hops: 2431
Set signal latency stall time: 26
Reenqueueing errored packet 465237 at time 48552
Additional hops: 2439
Set signal latency stall time: 16
Reenqueueing errored packet 465882 at time 48591
Additional hops: 2442
Set signal latency stall time: 6
Reenqueueing errored packet 467505 at time 48732
Additional hops: 2447
Set signal latency stall time: 10
Additional hops: 2454
Set signal latency stall time: 14
Reenqueueing errored packet 469870 at time 48993
Reenqueueing errored packet 469820 at time 48999
Additional hops: 2458
Set signal latency stall time: 8
Reenqueueing errored packet 470699 at time 49078
Additional hops: 2466
Set signal latency stall time: 16
Reenqueueing errored packet 471224 at time 49154
Additional hops: 2470
Set signal latency stall time: 8
Reenqueueing errored packet 472183 at time 49228
Additional hops: 2475
Set signal latency stall time: 10
Reenqueueing errored packet 472533 at time 49269
Additional hops: 2483
Set signal latency stall time: 16
Reenqueueing errored packet 474373 at time 49479
Additional hops: 2489
Set signal latency stall time: 12
Reenqueueing errored packet 474715 at time 49503
Additional hops: 2498
Set signal latency stall time: 18
Reenqueueing errored packet 477329 at time 49788
Additional hops: 2504
Set signal latency stall time: 12
Reenqueueing errored packet 478612 at time 49907
Additional hops: 2511
Set signal latency stall time: 14
Reenqueueing errored packet 479210 at time 49975
Class 0:
Packet latency average = 21.1715
	minimum = 5
	maximum = 126
Network latency average = 21.1415
	minimum = 5
	maximum = 54
Slowest packet = 288075
Flit latency average = 21.1452
	minimum = 5
	maximum = 54
Slowest flit = 289194
Fragmentation average = 0
	minimum = 0
	maximum = 0
Injected packet rate average = 0.15002
	minimum = 0.1452 (at node 9)
	maximum = 0.15415 (at node 35)
Accepted packet rate average = 0.150017
	minimum = 0.14235 (at node 1)
	maximum = 0.15775 (at node 57)
Injected flit rate average = 0.15002
	minimum = 0.1452 (at node 9)
	maximum = 0.15415 (at node 35)
Accepted flit rate average= 0.150017
	minimum = 0.14235 (at node 1)
	maximum = 0.15775 (at node 57)
Injected packet length average = 1
Accepted packet length average = 1
Total in-flight flits = 213 (213 measured)
latency change    = 0.000728299
throughput change = 0.00204143
Additional hops: 2515
Set signal latency stall time: 8
Reenqueueing errored packet 480355 at time 50081
Additional hops: 2518
Set signal latency stall time: 6
Reenqueueing errored packet 480849 at time 50128
Additional hops: 2527
Set signal latency stall time: 18
Reenqueueing errored packet 481012 at time 50175
Additional hops: 2533
Set signal latency stall time: 12
Reenqueueing errored packet 482640 at time 50329
Additional hops: 2542
Set signal latency stall time: 18
Reenqueueing errored packet 482783 at time 50362
Additional hops: 2550
Set signal latency stall time: 16
Reenqueueing errored packet 484638 at time 50544
Additional hops: 2557
Set signal latency stall time: 14
Reenqueueing errored packet 485007 at time 50575
Additional hops: 2563
Set signal latency stall time: 12
Reenqueueing errored packet 485470 at time 50617
Additional hops: 2572
Set signal latency stall time: 18
Reenqueueing errored packet 486104 at time 50699
Additional hops: 2584
Set signal latency stall time: 24
Reenqueueing errored packet 486240 at time 50728
Additional hops: 2591
Set signal latency stall time: 14
Reenqueueing errored packet 489416 at time 51031
Additional hops: 2597
Set signal latency stall time: 12
Reenqueueing errored packet 489737 at time 51056
Additional hops: 2606
Set signal latency stall time: 18
Additional hops: 2615
Set signal latency stall time: 18
Reenqueueing errored packet 492784 at time 51389
Reenqueueing errored packet 492905 at time 51404
Additional hops: 2619
Set signal latency stall time: 8
Reenqueueing errored packet 496654 at time 51769
Additional hops: 2625
Set signal latency stall time: 12
Additional hops: 2628
Set signal latency stall time: 6
Reenqueueing errored packet 496935 at time 51809
Reenqueueing errored packet 497117 at time 51811
Additional hops: 2637
Set signal latency stall time: 18
Reenqueueing errored packet 498945 at time 52029
Additional hops: 2645
Set signal latency stall time: 16
Reenqueueing errored packet 501599 at time 52301
Additional hops: 2651
Set signal latency stall time: 12
Reenqueueing errored packet 502218 at time 52355
Additional hops: 2659
Set signal latency stall time: 16
Reenqueueing errored packet 503282 at time 52475
Additional hops: 2667
Set signal latency stall time: 16
Reenqueueing errored packet 506431 at time 52798
Additional hops: 2673
Set signal latency stall time: 12
Reenqueueing errored packet 507150 at time 52862
Additional hops: 2678
Set signal latency stall time: 10
Reenqueueing errored packet 508504 at time 52996
Additional hops: 2686
Set signal latency stall time: 16
Reenqueueing errored packet 508587 at time 53021
Additional hops: 2699
Set signal latency stall time: 26
Reenqueueing errored packet 512707 at time 53471
Additional hops: 2706
Set signal latency stall time: 14
Reenqueueing errored packet 514001 at time 53576
Additional hops: 2710
Set signal latency stall time: 8
Reenqueueing errored packet 514474 at time 53608
Additional hops: 2720
Set signal latency stall time: 20
Additional hops: 2723
Set signal latency stall time: 6
Reenqueueing errored packet 516125 at time 53780
Reenqueueing errored packet 515918 at time 53791
Additional hops: 2734
Set signal latency stall time: 22
Reenqueueing errored packet 517285 at time 53947
Additional hops: 2743
Set signal latency stall time: 18
Reenqueueing errored packet 517657 at time 53969
Additional hops: 2756
Set signal latency stall time: 26
Additional hops: 2760
Set signal latency stall time: 8
Reenqueueing errored packet 520858 at time 54274
Reenqueueing errored packet 520647 at time 54291
Additional hops: 2767
Set signal latency stall time: 14
Reenqueueing errored packet 524252 at time 54639
Additional hops: 2771
Set signal latency stall time: 8
Reenqueueing errored packet 525220 at time 54722
Additional hops: 2775
Set signal latency stall time: 8
Reenqueueing errored packet 528113 at time 55019
Additional hops: 2782
Set signal latency stall time: 14
Reenqueueing errored packet 531086 at time 55342
Additional hops: 2793
Set signal latency stall time: 22
Additional hops: 2799
Set signal latency stall time: 12
Reenqueueing errored packet 531572 at time 55408
Reenqueueing errored packet 531889 at time 55416
Additional hops: 2804
Set signal latency stall time: 10
Reenqueueing errored packet 533893 at time 55627
Additional hops: 2811
Set signal latency stall time: 14
Reenqueueing errored packet 536013 at time 55850
Additional hops: 2822
Set signal latency stall time: 22
Reenqueueing errored packet 538722 at time 56146
Additional hops: 2830
Set signal latency stall time: 16
Reenqueueing errored packet 540492 at time 56315
Additional hops: 2841
Set signal latency stall time: 22
Reenqueueing errored packet 544311 at time 56720
Additional hops: 2843
Set signal latency stall time: 4
Reenqueueing errored packet 545505 at time 56804
Additional hops: 2849
Set signal latency stall time: 12
Reenqueueing errored packet 546302 at time 56904
Additional hops: 2860
Set signal latency stall time: 22
Reenqueueing errored packet 547650 at time 57078
Additional hops: 2867
Set signal latency stall time: 14
Additional hops: 2877
Set signal latency stall time: 20
Reenqueueing errored packet 553283 at time 57651
Reenqueueing errored packet 553267 at time 57664
Additional hops: 2888
Set signal latency stall time: 22
Reenqueueing errored packet 554848 at time 57831
Additional hops: 2896
Set signal latency stall time: 16
Reenqueueing errored packet 555497 at time 57886
Additional hops: 2902
Set signal latency stall time: 12
Reenqueueing errored packet 557297 at time 58062
Additional hops: 2905
Set signal latency stall time: 6
Additional hops: 2917
Set signal latency stall time: 24
Reenqueueing errored packet 558759 at time 58202
Reenqueueing errored packet 558488 at time 58222
Additional hops: 2926
Set signal latency stall time: 18
Additional hops: 2933
Set signal latency stall time: 14
Reenqueueing errored packet 559358 at time 58296
Reenqueueing errored packet 559517 at time 58304
Additional hops: 2937
Set signal latency stall time: 8
Reenqueueing errored packet 561782 at time 58525
Additional hops: 2946
Set signal latency stall time: 18
Reenqueueing errored packet 562500 at time 58622
Additional hops: 2949
Set signal latency stall time: 6
Reenqueueing errored packet 563421 at time 58688
Additional hops: 2957
Set signal latency stall time: 16
Reenqueueing errored packet 563783 at time 58748
Additional hops: 2966
Set signal latency stall time: 18
Reenqueueing errored packet 564169 at time 58795
Additional hops: 2979
Set signal latency stall time: 26
Reenqueueing errored packet 565143 at time 58920
Additional hops: 2987
Set signal latency stall time: 16
Additional hops: 2993
Set signal latency stall time: 12
Reenqueueing errored packet 572712 at time 59662
Reenqueueing errored packet 572658 at time 59664
Additional hops: 2999
Set signal latency stall time: 12
Reenqueueing errored packet 572899 at time 59681
Additional hops: 3006
Set signal latency stall time: 14
Reenqueueing errored packet 573696 at time 59768
Additional hops: 3017
Set signal latency stall time: 22
Reenqueueing errored packet 573970 at time 59818
Class 0:
Packet latency average = 21.1776
	minimum = 5
	maximum = 126
Network latency average = 21.148
	minimum = 5
	maximum = 54
Slowest packet = 288075
Flit latency average = 21.1504
	minimum = 5
	maximum = 54
Slowest flit = 289194
Fragmentation average = 0
	minimum = 0
	maximum = 0
Injected packet rate average = 0.150297
	minimum = 0.145033 (at node 9)
	maximum = 0.153367 (at node 49)
Accepted packet rate average = 0.150309
	minimum = 0.144833 (at node 54)
	maximum = 0.1567 (at node 57)
Injected flit rate average = 0.150297
	minimum = 0.145033 (at node 9)
	maximum = 0.153367 (at node 49)
Accepted flit rate average= 0.150309
	minimum = 0.144833 (at node 54)
	maximum = 0.1567 (at node 57)
Injected packet length average = 1
Accepted packet length average = 1
Total in-flight flits = 187 (187 measured)
latency change    = 0.000288929
throughput change = 0.00194045
Draining all recorded packets ...
Draining remaining packets ...
Time taken is 60085 cycles
====== Overall Traffic Statistics ======
====== Traffic class 0 ======
Packet latency average = 21.179 (1 samples)
	minimum = 5 (1 samples)
	maximum = 126 (1 samples)
Network latency average = 21.1494 (1 samples)
	minimum = 5 (1 samples)
	maximum = 54 (1 samples)
Flit latency average = 21.1514 (1 samples)
	minimum = 5 (1 samples)
	maximum = 54 (1 samples)
Fragmentation average = 0 (1 samples)
	minimum = 0 (1 samples)
	maximum = 0 (1 samples)
Injected packet rate average = 0.150297 (1 samples)
	minimum = 0.145033 (1 samples)
	maximum = 0.153367 (1 samples)
Accepted packet rate average = 0.150309 (1 samples)
	minimum = 0.144833 (1 samples)
	maximum = 0.1567 (1 samples)
Injected flit rate average = 0.150297 (1 samples)
	minimum = 0.145033 (1 samples)
	maximum = 0.153367 (1 samples)
Accepted flit rate average = 0.150309 (1 samples)
	minimum = 0.144833 (1 samples)
	maximum = 0.1567 (1 samples)
Injected packet size average = 1 (1 samples)
Accepted packet size average = 1 (1 samples)
Hops average = 6.25404 (1 samples)
Total run time 71.6188
