BEGIN Configuration File: examples/ecc_mesh88_config_1_0.200_packet_5
// $Id$

// Copyright (c) 2007-2015, Trustees of The Leland Stanford Junior University
// All rights reserved.
//
// Redistribution and use in source and binary forms, with or without
// modification, are permitted provided that the following conditions are met:
//
// Redistributions of source code must retain the above copyright notice, this
// list of conditions and the following disclaimer.
// Redistributions in binary form must reproduce the above copyright notice,
// this list of conditions and the following disclaimer in the documentation
// and/or other materials provided with the distribution.
//
// THIS SOFTWARE IS PROVIDED BY THE COPYRIGHT HOLDERS AND CONTRIBUTORS "AS IS"
// AND ANY EXPRESS OR IMPLIED WARRANTIES, INCLUDING, BUT NOT LIMITED TO, THE
// IMPLIED WARRANTIES OF MERCHANTABILITY AND FITNESS FOR A PARTICULAR PURPOSE
// ARE DISCLAIMED. IN NO EVENT SHALL THE COPYRIGHT OWNER OR CONTRIBUTORS BE
// LIABLE FOR ANY DIRECT, INDIRECT, INCIDENTAL, SPECIAL, EXEMPLARY, OR
// CONSEQUENTIAL DAMAGES (INCLUDING, BUT NOT LIMITED TO, PROCUREMENT OF
// SUBSTITUTE GOODS OR SERVICES; LOSS OF USE, DATA, OR PROFITS; OR BUSINESS
// INTERRUPTION) HOWEVER CAUSED AND ON ANY THEORY OF LIABILITY, WHETHER IN
// CONTRACT, STRICT LIABILITY, OR TORT (INCLUDING NEGLIGENCE OR OTHERWISE)
// ARISING IN ANY WAY OUT OF THE USE OF THIS SOFTWARE, EVEN IF ADVISED OF THE
// POSSIBILITY OF SUCH DAMAGE.

// Dragonfly
//




vc_buf_size = 256;


wait_for_tail_credit = 0;

//
// Router architecture
//
vc_allocator = separable_input_first; 
sw_allocator = separable_input_first;
alloc_iters  = 1;

credit_delay   = 2;
routing_delay  = 0;
vc_alloc_delay = 1;
sw_alloc_delay = 1;
st_final_delay = 1;

input_speedup     = 1;
output_speedup    = 1;
internal_speedup  = 2.0;


warmup_periods = 3;
sim_count          = 1;

sample_period  = 10000;  


routing_function = dor;
num_vcs     = 2;

priority = none;
traffic       = uniform; 

injection_rate = 0.2;
packet_size = 1;
injection_rate_uses_flits = 1;

topology = mesh;

k  = 8;
n  = 2;

fer = 5;
ecc = link;

watch_out=-;
//watch_file = watch.txt;

ecc = packet;

stats_out = examples/ecc_mesh88_config_1_0.200_packet_5.m;

END Configuration File: examples/ecc_mesh88_config_1_0.200_packet_5
Additional hops: 8
Set signal latency stall time: 16
Reenqueueing errored packet 3868 at time 349
Additional hops: 13
Set signal latency stall time: 10
Reenqueueing errored packet 4582 at time 389
Additional hops: 24
Set signal latency stall time: 22
Reenqueueing errored packet 24410 at time 1967
Additional hops: 33
Set signal latency stall time: 18
Reenqueueing errored packet 37498 at time 2988
Additional hops: 42
Set signal latency stall time: 18
Reenqueueing errored packet 64153 at time 5075
Additional hops: 47
Set signal latency stall time: 10
Reenqueueing errored packet 87272 at time 6855
Additional hops: 55
Set signal latency stall time: 16
Additional hops: 59
Set signal latency stall time: 8
Reenqueueing errored packet 97368 at time 7640
Reenqueueing errored packet 97216 at time 7646
Additional hops: 66
Set signal latency stall time: 14
Reenqueueing errored packet 105336 at time 8279
Additional hops: 72
Set signal latency stall time: 12
Reenqueueing errored packet 106243 at time 8345
Additional hops: 78
Set signal latency stall time: 12
Additional hops: 87
Set signal latency stall time: 18
Reenqueueing errored packet 109773 at time 8624
Reenqueueing errored packet 109705 at time 8633
Additional hops: 91
Set signal latency stall time: 8
Reenqueueing errored packet 113014 at time 8865
Additional hops: 99
Set signal latency stall time: 16
Reenqueueing errored packet 115664 at time 9094
Class 0:
Packet latency average = 21.3519
	minimum = 5
	maximum = 94
Network latency average = 21.3476
	minimum = 5
	maximum = 52
Slowest packet = 172
Flit latency average = 21.3476
	minimum = 5
	maximum = 52
Slowest flit = 30065
Fragmentation average = 0
	minimum = 0
	maximum = 0
Injected packet rate average = 0.199914
	minimum = 0.1896 (at node 48)
	maximum = 0.2079 (at node 17)
Accepted packet rate average = 0.199455
	minimum = 0.1909 (at node 46)
	maximum = 0.2077 (at node 1)
Injected flit rate average = 0.199914
	minimum = 0.1896 (at node 48)
	maximum = 0.2079 (at node 17)
Accepted flit rate average= 0.199455
	minimum = 0.1909 (at node 46)
	maximum = 0.2077 (at node 1)
Injected packet length average = 1
Accepted packet length average = 1
Total in-flight flits = 294 (0 measured)
latency change    = 1
throughput change = 1
Additional hops: 109
Set signal latency stall time: 20
Reenqueueing errored packet 132924 at time 10456
Additional hops: 120
Set signal latency stall time: 22
Reenqueueing errored packet 134151 at time 10555
Additional hops: 130
Set signal latency stall time: 20
Reenqueueing errored packet 134931 at time 10610
Additional hops: 141
Set signal latency stall time: 22
Reenqueueing errored packet 149974 at time 11798
Additional hops: 147
Set signal latency stall time: 12
Reenqueueing errored packet 159223 at time 12501
Additional hops: 158
Set signal latency stall time: 22
Reenqueueing errored packet 160022 at time 12583
Additional hops: 163
Set signal latency stall time: 10
Reenqueueing errored packet 175389 at time 13763
Additional hops: 173
Set signal latency stall time: 20
Reenqueueing errored packet 194877 at time 15332
Additional hops: 184
Set signal latency stall time: 22
Reenqueueing errored packet 200130 at time 15743
Additional hops: 193
Set signal latency stall time: 18
Reenqueueing errored packet 221615 at time 17435
Additional hops: 200
Set signal latency stall time: 14
Reenqueueing errored packet 234915 at time 18462
Class 0:
Packet latency average = 21.3775
	minimum = 5
	maximum = 96
Network latency average = 21.3732
	minimum = 5
	maximum = 52
Slowest packet = 172
Flit latency average = 21.3732
	minimum = 5
	maximum = 52
Slowest flit = 30065
Fragmentation average = 0
	minimum = 0
	maximum = 0
Injected packet rate average = 0.199362
	minimum = 0.19415 (at node 27)
	maximum = 0.20625 (at node 17)
Accepted packet rate average = 0.199153
	minimum = 0.19295 (at node 52)
	maximum = 0.20575 (at node 28)
Injected flit rate average = 0.199362
	minimum = 0.19415 (at node 27)
	maximum = 0.20625 (at node 17)
Accepted flit rate average= 0.199153
	minimum = 0.19295 (at node 52)
	maximum = 0.20575 (at node 28)
Injected packet length average = 1
Accepted packet length average = 1
Total in-flight flits = 267 (0 measured)
latency change    = 0.00120037
throughput change = 0.00151422
Additional hops: 204
Set signal latency stall time: 8
Reenqueueing errored packet 296714 at time 23262
Additional hops: 212
Set signal latency stall time: 16
Reenqueueing errored packet 298051 at time 23385
Additional hops: 219
Set signal latency stall time: 14
Reenqueueing errored packet 304390 at time 23862
Additional hops: 225
Set signal latency stall time: 12
Reenqueueing errored packet 306174 at time 23998
Additional hops: 231
Set signal latency stall time: 12
Reenqueueing errored packet 308494 at time 24181
Additional hops: 241
Set signal latency stall time: 20
Reenqueueing errored packet 349741 at time 27411
Additional hops: 249
Set signal latency stall time: 16
Reenqueueing errored packet 356886 at time 27958
Additional hops: 258
Set signal latency stall time: 18
Reenqueueing errored packet 381123 at time 29850
Class 0:
Packet latency average = 21.3669
	minimum = 5
	maximum = 88
Network latency average = 21.3644
	minimum = 5
	maximum = 52
Slowest packet = 269589
Flit latency average = 21.3644
	minimum = 5
	maximum = 52
Slowest flit = 269589
Fragmentation average = 0
	minimum = 0
	maximum = 0
Injected packet rate average = 0.200809
	minimum = 0.192 (at node 56)
	maximum = 0.2082 (at node 20)
Accepted packet rate average = 0.200827
	minimum = 0.1927 (at node 13)
	maximum = 0.2201 (at node 52)
Injected flit rate average = 0.200809
	minimum = 0.192 (at node 56)
	maximum = 0.2082 (at node 20)
Accepted flit rate average= 0.200827
	minimum = 0.1927 (at node 13)
	maximum = 0.2201 (at node 52)
Injected packet length average = 1
Accepted packet length average = 1
Total in-flight flits = 256 (0 measured)
latency change    = 0.000495993
throughput change = 0.00833275
Warmed up ...Time used is 30000 cycles
Additional hops: 265
Set signal latency stall time: 14
Reenqueueing errored packet 387603 at time 30346
Additional hops: 271
Set signal latency stall time: 12
Reenqueueing errored packet 419897 at time 32843
Additional hops: 277
Set signal latency stall time: 12
Reenqueueing errored packet 452645 at time 35405
Additional hops: 278
Set signal latency stall time: 2
Reenqueueing errored packet 455321 at time 35588
Additional hops: 287
Set signal latency stall time: 18
Reenqueueing errored packet 464432 at time 36345
Additional hops: 298
Set signal latency stall time: 22
Reenqueueing errored packet 474447 at time 37144
Additional hops: 303
Set signal latency stall time: 10
Reenqueueing errored packet 497278 at time 38899
Class 0:
Packet latency average = 21.3896
	minimum = 5
	maximum = 97
Network latency average = 21.3876
	minimum = 5
	maximum = 57
Slowest packet = 384389
Flit latency average = 21.3934
	minimum = 5
	maximum = 57
Slowest flit = 452686
Fragmentation average = 0
	minimum = 0
	maximum = 0
Injected packet rate average = 0.200217
	minimum = 0.1925 (at node 38)
	maximum = 0.2074 (at node 50)
Accepted packet rate average = 0.200198
	minimum = 0.1903 (at node 14)
	maximum = 0.2077 (at node 37)
Injected flit rate average = 0.200217
	minimum = 0.1925 (at node 38)
	maximum = 0.2074 (at node 50)
Accepted flit rate average= 0.200198
	minimum = 0.1903 (at node 14)
	maximum = 0.2077 (at node 37)
Injected packet length average = 1
Accepted packet length average = 1
Total in-flight flits = 268 (268 measured)
latency change    = 0.00106001
throughput change = 0.00313751
Additional hops: 307
Set signal latency stall time: 8
Reenqueueing errored packet 521474 at time 40776
Additional hops: 314
Set signal latency stall time: 14
Reenqueueing errored packet 524082 at time 41000
Additional hops: 324
Set signal latency stall time: 20
Reenqueueing errored packet 537039 at time 42029
Additional hops: 334
Set signal latency stall time: 20
Reenqueueing errored packet 545611 at time 42694
Additional hops: 341
Set signal latency stall time: 14
Reenqueueing errored packet 564712 at time 44172
Additional hops: 350
Set signal latency stall time: 18
Reenqueueing errored packet 576009 at time 45064
Additional hops: 358
Set signal latency stall time: 16
Reenqueueing errored packet 597758 at time 46736
Additional hops: 363
Set signal latency stall time: 10
Reenqueueing errored packet 631524 at time 49361
Additional hops: 370
Set signal latency stall time: 14
Reenqueueing errored packet 637890 at time 49872
Additional hops: 375
Set signal latency stall time: 10
Reenqueueing errored packet 639384 at time 49974
Class 0:
Packet latency average = 21.3885
	minimum = 5
	maximum = 97
Network latency average = 21.3859
	minimum = 5
	maximum = 57
Slowest packet = 384389
Flit latency average = 21.3888
	minimum = 5
	maximum = 57
Slowest flit = 452686
Fragmentation average = 0
	minimum = 0
	maximum = 0
Injected packet rate average = 0.200327
	minimum = 0.1933 (at node 38)
	maximum = 0.2061 (at node 32)
Accepted packet rate average = 0.200333
	minimum = 0.19305 (at node 14)
	maximum = 0.2075 (at node 37)
Injected flit rate average = 0.200327
	minimum = 0.1933 (at node 38)
	maximum = 0.2061 (at node 32)
Accepted flit rate average= 0.200333
	minimum = 0.19305 (at node 14)
	maximum = 0.2075 (at node 37)
Injected packet length average = 1
Accepted packet length average = 1
Total in-flight flits = 248 (248 measured)
latency change    = 5.35868e-05
throughput change = 0.000670759
Additional hops: 382
Set signal latency stall time: 14
Reenqueueing errored packet 650844 at time 50873
Additional hops: 390
Set signal latency stall time: 16
Reenqueueing errored packet 651502 at time 50931
Additional hops: 401
Set signal latency stall time: 22
Reenqueueing errored packet 653915 at time 51128
Additional hops: 409
Set signal latency stall time: 16
Reenqueueing errored packet 688648 at time 53836
Additional hops: 411
Set signal latency stall time: 4
Reenqueueing errored packet 692306 at time 54089
Additional hops: 418
Set signal latency stall time: 14
Reenqueueing errored packet 693417 at time 54200
Additional hops: 429
Set signal latency stall time: 22
Reenqueueing errored packet 738724 at time 57741
Additional hops: 437
Set signal latency stall time: 16
Reenqueueing errored packet 742573 at time 58025
Class 0:
Packet latency average = 21.381
	minimum = 5
	maximum = 97
Network latency average = 21.3785
	minimum = 5
	maximum = 57
Slowest packet = 384389
Flit latency average = 21.3804
	minimum = 5
	maximum = 57
Slowest flit = 452686
Fragmentation average = 0
	minimum = 0
	maximum = 0
Injected packet rate average = 0.200452
	minimum = 0.195267 (at node 7)
	maximum = 0.2055 (at node 15)
Accepted packet rate average = 0.200442
	minimum = 0.194633 (at node 62)
	maximum = 0.2067 (at node 37)
Injected flit rate average = 0.200452
	minimum = 0.195267 (at node 7)
	maximum = 0.2055 (at node 15)
Accepted flit rate average= 0.200442
	minimum = 0.194633 (at node 62)
	maximum = 0.2067 (at node 37)
Injected packet length average = 1
Accepted packet length average = 1
Total in-flight flits = 274 (274 measured)
latency change    = 0.00034728
throughput change = 0.000545669
Draining all recorded packets ...
Additional hops: 441
Set signal latency stall time: 8
Reenqueueing errored packet 768603 at time 60029
Draining remaining packets ...
Time taken is 60083 cycles
====== Overall Traffic Statistics ======
====== Traffic class 0 ======
Packet latency average = 21.3831 (1 samples)
	minimum = 5 (1 samples)
	maximum = 97 (1 samples)
Network latency average = 21.3805 (1 samples)
	minimum = 5 (1 samples)
	maximum = 57 (1 samples)
Flit latency average = 21.382 (1 samples)
	minimum = 5 (1 samples)
	maximum = 57 (1 samples)
Fragmentation average = 0 (1 samples)
	minimum = 0 (1 samples)
	maximum = 0 (1 samples)
Injected packet rate average = 0.200452 (1 samples)
	minimum = 0.195267 (1 samples)
	maximum = 0.2055 (1 samples)
Accepted packet rate average = 0.200442 (1 samples)
	minimum = 0.194633 (1 samples)
	maximum = 0.2067 (1 samples)
Injected flit rate average = 0.200452 (1 samples)
	minimum = 0.195267 (1 samples)
	maximum = 0.2055 (1 samples)
Accepted flit rate average = 0.200442 (1 samples)
	minimum = 0.194633 (1 samples)
	maximum = 0.2067 (1 samples)
Injected packet size average = 1 (1 samples)
Accepted packet size average = 1 (1 samples)
Hops average = 6.24974 (1 samples)
Total run time 77.6293
