BEGIN Configuration File: examples/ecc_mesh88_config_1_0.750_packet_3
// $Id$

// Copyright (c) 2007-2015, Trustees of The Leland Stanford Junior University
// All rights reserved.
//
// Redistribution and use in source and binary forms, with or without
// modification, are permitted provided that the following conditions are met:
//
// Redistributions of source code must retain the above copyright notice, this
// list of conditions and the following disclaimer.
// Redistributions in binary form must reproduce the above copyright notice,
// this list of conditions and the following disclaimer in the documentation
// and/or other materials provided with the distribution.
//
// THIS SOFTWARE IS PROVIDED BY THE COPYRIGHT HOLDERS AND CONTRIBUTORS "AS IS"
// AND ANY EXPRESS OR IMPLIED WARRANTIES, INCLUDING, BUT NOT LIMITED TO, THE
// IMPLIED WARRANTIES OF MERCHANTABILITY AND FITNESS FOR A PARTICULAR PURPOSE
// ARE DISCLAIMED. IN NO EVENT SHALL THE COPYRIGHT OWNER OR CONTRIBUTORS BE
// LIABLE FOR ANY DIRECT, INDIRECT, INCIDENTAL, SPECIAL, EXEMPLARY, OR
// CONSEQUENTIAL DAMAGES (INCLUDING, BUT NOT LIMITED TO, PROCUREMENT OF
// SUBSTITUTE GOODS OR SERVICES; LOSS OF USE, DATA, OR PROFITS; OR BUSINESS
// INTERRUPTION) HOWEVER CAUSED AND ON ANY THEORY OF LIABILITY, WHETHER IN
// CONTRACT, STRICT LIABILITY, OR TORT (INCLUDING NEGLIGENCE OR OTHERWISE)
// ARISING IN ANY WAY OUT OF THE USE OF THIS SOFTWARE, EVEN IF ADVISED OF THE
// POSSIBILITY OF SUCH DAMAGE.

// Dragonfly
//




vc_buf_size = 256;


wait_for_tail_credit = 0;

//
// Router architecture
//
vc_allocator = separable_input_first; 
sw_allocator = separable_input_first;
alloc_iters  = 1;

credit_delay   = 2;
routing_delay  = 0;
vc_alloc_delay = 1;
sw_alloc_delay = 1;
st_final_delay = 1;

input_speedup     = 1;
output_speedup    = 1;
internal_speedup  = 2.0;


warmup_periods = 3;
sim_count          = 1;

sample_period  = 10000;  


routing_function = dor;
num_vcs     = 2;

priority = none;
traffic       = uniform; 

injection_rate = 0.75;
packet_size = 1;
injection_rate_uses_flits = 1;

topology = mesh;

k  = 8;
n  = 2;

fer = 3;
ecc = link;

watch_out=-;
//watch_file = watch.txt;

ecc = packet;

stats_out = examples/ecc_mesh88_config_1_0.750_packet_3.m;

END Configuration File: examples/ecc_mesh88_config_1_0.750_packet_3
Additional hops: 4
Set signal latency stall time: 8
Additional hops: 11
Set signal latency stall time: 14
Reenqueueing errored packet 1034 at time 45
Additional hops: 14
Set signal latency stall time: 6
Additional hops: 19
Set signal latency stall time: 10
Reenqueueing errored packet 514 at time 52
Additional hops: 24
Set signal latency stall time: 10
Reenqueueing errored packet 1087 at time 57
Additional hops: 33
Set signal latency stall time: 18
Reenqueueing errored packet 817 at time 62
Additional hops: 41
Set signal latency stall time: 16
Reenqueueing errored packet 1410 at time 65
Additional hops: 50
Set signal latency stall time: 18
Reenqueueing errored packet 688 at time 78
Reenqueueing errored packet 1224 at time 81
Additional hops: 57
Set signal latency stall time: 14
Additional hops: 63
Set signal latency stall time: 12
Additional hops: 67
Set signal latency stall time: 8
Reenqueueing errored packet 910 at time 91
Reenqueueing errored packet 2794 at time 99
Reenqueueing errored packet 1446 at time 101
Reenqueueing errored packet 2968 at time 103
Additional hops: 71
Set signal latency stall time: 8
Additional hops: 75
Set signal latency stall time: 8
Additional hops: 86
Set signal latency stall time: 22
Reenqueueing errored packet 2966 at time 114
Additional hops: 96
Set signal latency stall time: 20
Reenqueueing errored packet 2964 at time 116
Additional hops: 105
Set signal latency stall time: 18
Reenqueueing errored packet 1739 at time 130
Additional hops: 116
Set signal latency stall time: 22
Reenqueueing errored packet 1809 at time 135
Additional hops: 126
Set signal latency stall time: 20
Reenqueueing errored packet 3236 at time 140
Additional hops: 134
Set signal latency stall time: 16
Additional hops: 136
Set signal latency stall time: 4
Additional hops: 146
Set signal latency stall time: 20
Reenqueueing errored packet 2152 at time 155
Additional hops: 155
Set signal latency stall time: 18
Reenqueueing errored packet 5970 at time 158
Reenqueueing errored packet 3434 at time 159
Additional hops: 160
Set signal latency stall time: 10
Reenqueueing errored packet 3923 at time 160
Additional hops: 166
Set signal latency stall time: 12
Additional hops: 173
Set signal latency stall time: 14
Additional hops: 180
Set signal latency stall time: 14
Additional hops: 186
Set signal latency stall time: 12
Reenqueueing errored packet 5370 at time 170
Additional hops: 192
Set signal latency stall time: 12
Additional hops: 203
Set signal latency stall time: 22
Additional hops: 209
Set signal latency stall time: 12
Additional hops: 214
Set signal latency stall time: 10
Reenqueueing errored packet 6095 at time 174
Reenqueueing errored packet 3107 at time 174
Reenqueueing errored packet 3273 at time 176
Reenqueueing errored packet 4815 at time 176
Reenqueueing errored packet 2840 at time 178
Reenqueueing errored packet 3329 at time 179
Additional hops: 226
Set signal latency stall time: 24
Reenqueueing errored packet 4136 at time 183
Reenqueueing errored packet 5946 at time 183
Reenqueueing errored packet 3888 at time 184
Reenqueueing errored packet 2612 at time 194
Reenqueueing errored packet 4012 at time 205
Additional hops: 237
Set signal latency stall time: 22
Additional hops: 246
Set signal latency stall time: 18
Additional hops: 256
Set signal latency stall time: 20
Additional hops: 264
Set signal latency stall time: 16
Reenqueueing errored packet 5114 at time 233
Additional hops: 271
Set signal latency stall time: 14
Reenqueueing errored packet 3274 at time 237
Additional hops: 276
Set signal latency stall time: 10
Additional hops: 282
Set signal latency stall time: 12
Reenqueueing errored packet 5403 at time 247
Reenqueueing errored packet 5022 at time 247
Additional hops: 289
Set signal latency stall time: 14
Reenqueueing errored packet 6089 at time 248
Reenqueueing errored packet 6269 at time 249
Reenqueueing errored packet 6456 at time 252
Additional hops: 297
Set signal latency stall time: 16
Reenqueueing errored packet 8443 at time 262
Additional hops: 301
Set signal latency stall time: 8
Reenqueueing errored packet 8918 at time 269
Additional hops: 305
Set signal latency stall time: 8
Additional hops: 308
Set signal latency stall time: 6
Reenqueueing errored packet 10131 at time 277
Additional hops: 312
Set signal latency stall time: 8
Reenqueueing errored packet 12556 at time 282
Reenqueueing errored packet 10285 at time 282
Additional hops: 317
Set signal latency stall time: 10
Additional hops: 322
Set signal latency stall time: 10
Reenqueueing errored packet 11636 at time 287
Additional hops: 333
Set signal latency stall time: 22
Additional hops: 338
Set signal latency stall time: 10
Additional hops: 346
Set signal latency stall time: 16
Reenqueueing errored packet 11301 at time 295
Reenqueueing errored packet 11998 at time 297
Additional hops: 350
Set signal latency stall time: 8
Additional hops: 353
Set signal latency stall time: 6
Reenqueueing errored packet 9239 at time 303
Reenqueueing errored packet 12115 at time 309
Reenqueueing errored packet 12661 at time 309
Reenqueueing errored packet 7032 at time 310
Reenqueueing errored packet 5435 at time 312
Additional hops: 356
Set signal latency stall time: 6
Reenqueueing errored packet 12499 at time 319
Additional hops: 361
Set signal latency stall time: 10
Additional hops: 372
Set signal latency stall time: 22
Reenqueueing errored packet 12127 at time 331
Additional hops: 380
Set signal latency stall time: 16
Additional hops: 385
Set signal latency stall time: 10
Additional hops: 394
Set signal latency stall time: 18
Additional hops: 398
Set signal latency stall time: 8
Reenqueueing errored packet 8891 at time 347
Reenqueueing errored packet 13213 at time 350
Reenqueueing errored packet 8875 at time 351
Additional hops: 408
Set signal latency stall time: 20
Additional hops: 412
Set signal latency stall time: 8
Reenqueueing errored packet 6694 at time 353
Additional hops: 420
Set signal latency stall time: 16
Additional hops: 428
Set signal latency stall time: 16
Additional hops: 433
Set signal latency stall time: 10
Reenqueueing errored packet 7097 at time 358
Reenqueueing errored packet 12903 at time 361
Additional hops: 443
Set signal latency stall time: 20
Additional hops: 451
Set signal latency stall time: 16
Reenqueueing errored packet 9713 at time 368
Reenqueueing errored packet 7217 at time 372
Reenqueueing errored packet 8633 at time 372
Reenqueueing errored packet 10692 at time 373
Additional hops: 459
Set signal latency stall time: 16
Additional hops: 464
Set signal latency stall time: 10
Additional hops: 468
Set signal latency stall time: 8
Reenqueueing errored packet 8212 at time 383
Reenqueueing errored packet 7796 at time 384
Additional hops: 473
Set signal latency stall time: 10
Reenqueueing errored packet 13010 at time 386
Additional hops: 475
Set signal latency stall time: 4
Reenqueueing errored packet 11585 at time 391
Reenqueueing errored packet 7089 at time 391
Additional hops: 487
Set signal latency stall time: 24
Additional hops: 495
Set signal latency stall time: 16
Reenqueueing errored packet 16262 at time 395
Reenqueueing errored packet 17207 at time 395
Additional hops: 497
Set signal latency stall time: 4
Reenqueueing errored packet 9878 at time 410
Additional hops: 507
Set signal latency stall time: 20
Reenqueueing errored packet 19143 at time 412
Additional hops: 512
Set signal latency stall time: 10
Reenqueueing errored packet 9007 at time 416
Additional hops: 515
Set signal latency stall time: 6
Additional hops: 520
Set signal latency stall time: 10
Reenqueueing errored packet 16918 at time 423
Reenqueueing errored packet 15634 at time 424
Additional hops: 526
Set signal latency stall time: 12
Reenqueueing errored packet 10752 at time 431
Additional hops: 533
Set signal latency stall time: 14
Reenqueueing errored packet 13837 at time 433
Additional hops: 536
Set signal latency stall time: 6
Additional hops: 545
Set signal latency stall time: 18
Additional hops: 550
Set signal latency stall time: 10
Reenqueueing errored packet 18210 at time 437
Reenqueueing errored packet 15883 at time 440
Additional hops: 558
Set signal latency stall time: 16
Additional hops: 563
Set signal latency stall time: 10
Additional hops: 571
Set signal latency stall time: 16
Reenqueueing errored packet 11489 at time 446
Reenqueueing errored packet 9795 at time 446
Reenqueueing errored packet 17123 at time 452
Additional hops: 577
Set signal latency stall time: 12
Reenqueueing errored packet 15985 at time 454
Reenqueueing errored packet 13818 at time 457
Additional hops: 581
Set signal latency stall time: 8
Reenqueueing errored packet 11299 at time 462
Additional hops: 590
Set signal latency stall time: 18
Reenqueueing errored packet 15291 at time 465
Reenqueueing errored packet 13805 at time 466
Additional hops: 595
Set signal latency stall time: 10
Additional hops: 599
Set signal latency stall time: 8
Additional hops: 606
Set signal latency stall time: 14
Additional hops: 612
Set signal latency stall time: 12
Additional hops: 617
Set signal latency stall time: 10
Reenqueueing errored packet 19120 at time 478
Reenqueueing errored packet 19300 at time 478
Additional hops: 625
Set signal latency stall time: 16
Additional hops: 630
Set signal latency stall time: 10
Reenqueueing errored packet 12673 at time 482
Additional hops: 638
Set signal latency stall time: 16
Additional hops: 646
Set signal latency stall time: 16
Additional hops: 647
Set signal latency stall time: 2
Reenqueueing errored packet 16837 at time 485
Reenqueueing errored packet 20442 at time 485
Reenqueueing errored packet 22941 at time 487
Reenqueueing errored packet 17362 at time 487
Reenqueueing errored packet 16199 at time 491
Additional hops: 651
Set signal latency stall time: 8
Reenqueueing errored packet 15260 at time 496
Additional hops: 655
Set signal latency stall time: 8
Reenqueueing errored packet 16138 at time 500
Reenqueueing errored packet 12445 at time 501
Reenqueueing errored packet 19515 at time 503
Additional hops: 665
Set signal latency stall time: 20
Additional hops: 673
Set signal latency stall time: 16
Reenqueueing errored packet 15437 at time 508
Additional hops: 679
Set signal latency stall time: 12
Additional hops: 682
Set signal latency stall time: 6
Reenqueueing errored packet 14155 at time 521
Additional hops: 690
Set signal latency stall time: 16
Reenqueueing errored packet 18007 at time 523
Additional hops: 695
Set signal latency stall time: 10
Reenqueueing errored packet 10251 at time 524
Reenqueueing errored packet 24092 at time 525
Additional hops: 703
Set signal latency stall time: 16
Reenqueueing errored packet 20484 at time 534
Additional hops: 709
Set signal latency stall time: 12
Additional hops: 718
Set signal latency stall time: 18
Reenqueueing errored packet 19889 at time 539
Reenqueueing errored packet 15881 at time 547
Reenqueueing errored packet 21449 at time 550
Reenqueueing errored packet 12022 at time 554
Additional hops: 725
Set signal latency stall time: 14
Additional hops: 736
Set signal latency stall time: 22
Additional hops: 740
Set signal latency stall time: 8
Additional hops: 744
Set signal latency stall time: 8
Additional hops: 751
Set signal latency stall time: 14
Additional hops: 755
Set signal latency stall time: 8
Reenqueueing errored packet 23130 at time 578
Reenqueueing errored packet 21158 at time 578
Additional hops: 761
Set signal latency stall time: 12
Reenqueueing errored packet 21157 at time 581
Additional hops: 765
Set signal latency stall time: 8
Reenqueueing errored packet 22170 at time 586
Reenqueueing errored packet 13519 at time 588
Additional hops: 774
Set signal latency stall time: 18
Reenqueueing errored packet 17341 at time 589
Reenqueueing errored packet 18916 at time 590
Reenqueueing errored packet 19097 at time 592
Additional hops: 783
Set signal latency stall time: 18
Additional hops: 794
Set signal latency stall time: 22
Additional hops: 803
Set signal latency stall time: 18
Additional hops: 807
Set signal latency stall time: 8
Reenqueueing errored packet 12025 at time 607
Additional hops: 810
Set signal latency stall time: 6
Additional hops: 817
Set signal latency stall time: 14
Reenqueueing errored packet 25406 at time 615
Reenqueueing errored packet 22103 at time 615
Reenqueueing errored packet 16703 at time 616
Reenqueueing errored packet 20976 at time 624
Reenqueueing errored packet 11070 at time 624
Reenqueueing errored packet 19850 at time 625
Additional hops: 820
Set signal latency stall time: 6
Additional hops: 823
Set signal latency stall time: 6
Additional hops: 830
Set signal latency stall time: 14
Reenqueueing errored packet 24383 at time 641
Reenqueueing errored packet 23378 at time 642
Additional hops: 834
Set signal latency stall time: 8
Additional hops: 840
Set signal latency stall time: 12
Reenqueueing errored packet 23793 at time 655
Additional hops: 849
Set signal latency stall time: 18
Additional hops: 852
Set signal latency stall time: 6
Reenqueueing errored packet 27235 at time 660
Additional hops: 864
Set signal latency stall time: 24
Reenqueueing errored packet 28320 at time 666
Reenqueueing errored packet 20158 at time 666
Additional hops: 867
Set signal latency stall time: 6
Additional hops: 872
Set signal latency stall time: 10
Additional hops: 882
Set signal latency stall time: 20
Additional hops: 885
Set signal latency stall time: 6
Additional hops: 892
Set signal latency stall time: 14
Reenqueueing errored packet 31249 at time 674
Additional hops: 900
Set signal latency stall time: 16
Additional hops: 902
Set signal latency stall time: 4
Reenqueueing errored packet 15792 at time 677
Reenqueueing errored packet 23914 at time 679
Reenqueueing errored packet 19595 at time 679
Reenqueueing errored packet 29016 at time 681
Additional hops: 909
Set signal latency stall time: 14
Additional hops: 913
Set signal latency stall time: 8
Additional hops: 920
Set signal latency stall time: 14
Reenqueueing errored packet 24636 at time 687
Reenqueueing errored packet 13328 at time 688
Additional hops: 925
Set signal latency stall time: 10
Additional hops: 931
Set signal latency stall time: 12
Reenqueueing errored packet 12797 at time 691
Reenqueueing errored packet 22631 at time 692
Reenqueueing errored packet 19609 at time 692
Reenqueueing errored packet 24759 at time 697
Additional hops: 935
Set signal latency stall time: 8
Reenqueueing errored packet 24050 at time 699
Additional hops: 938
Set signal latency stall time: 6
Additional hops: 951
Set signal latency stall time: 26
Reenqueueing errored packet 18805 at time 701
Additional hops: 957
Set signal latency stall time: 12
Reenqueueing errored packet 24814 at time 702
Additional hops: 959
Set signal latency stall time: 4
Reenqueueing errored packet 27787 at time 706
Reenqueueing errored packet 32582 at time 707
Reenqueueing errored packet 33213 at time 708
Additional hops: 964
Set signal latency stall time: 10
Additional hops: 970
Set signal latency stall time: 12
Reenqueueing errored packet 23623 at time 714
Additional hops: 977
Set signal latency stall time: 14
Reenqueueing errored packet 22980 at time 719
Additional hops: 984
Set signal latency stall time: 14
Reenqueueing errored packet 16272 at time 723
Reenqueueing errored packet 13809 at time 727
Additional hops: 991
Set signal latency stall time: 14
Additional hops: 998
Set signal latency stall time: 14
Reenqueueing errored packet 26768 at time 732
Additional hops: 1007
Set signal latency stall time: 18
Additional hops: 1009
Set signal latency stall time: 4
Reenqueueing errored packet 22557 at time 737
Additional hops: 1017
Set signal latency stall time: 16
Reenqueueing errored packet 34639 at time 738
Additional hops: 1025
Set signal latency stall time: 16
Reenqueueing errored packet 20072 at time 745
Reenqueueing errored packet 20378 at time 746
Additional hops: 1033
Set signal latency stall time: 16
Reenqueueing errored packet 20202 at time 752
Additional hops: 1043
Set signal latency stall time: 20
Additional hops: 1045
Set signal latency stall time: 4
Reenqueueing errored packet 25894 at time 754
Additional hops: 1050
Set signal latency stall time: 10
Reenqueueing errored packet 35567 at time 757
Additional hops: 1059
Set signal latency stall time: 18
Reenqueueing errored packet 26360 at time 759
Reenqueueing errored packet 24209 at time 766
Reenqueueing errored packet 20376 at time 767
Additional hops: 1066
Set signal latency stall time: 14
Reenqueueing errored packet 22733 at time 773
Additional hops: 1072
Set signal latency stall time: 12
Reenqueueing errored packet 27911 at time 777
Additional hops: 1078
Set signal latency stall time: 12
Reenqueueing errored packet 18899 at time 787
Reenqueueing errored packet 29490 at time 788
Reenqueueing errored packet 24464 at time 790
Additional hops: 1084
Set signal latency stall time: 12
Additional hops: 1087
Set signal latency stall time: 6
Reenqueueing errored packet 34378 at time 805
Reenqueueing errored packet 37662 at time 806
Additional hops: 1091
Set signal latency stall time: 8
Additional hops: 1097
Set signal latency stall time: 12
Reenqueueing errored packet 36449 at time 818
Additional hops: 1100
Set signal latency stall time: 6
Additional hops: 1106
Set signal latency stall time: 12
Additional hops: 1113
Set signal latency stall time: 14
Reenqueueing errored packet 26516 at time 825
Reenqueueing errored packet 38570 at time 827
Additional hops: 1121
Set signal latency stall time: 16
Additional hops: 1128
Set signal latency stall time: 14
Additional hops: 1134
Set signal latency stall time: 12
Reenqueueing errored packet 30460 at time 834
Additional hops: 1144
Set signal latency stall time: 20
Reenqueueing errored packet 30117 at time 838
Additional hops: 1149
Set signal latency stall time: 10
Reenqueueing errored packet 30008 at time 844
Additional hops: 1155
Set signal latency stall time: 12
Reenqueueing errored packet 20958 at time 845
Reenqueueing errored packet 31093 at time 846
Additional hops: 1158
Set signal latency stall time: 6
Reenqueueing errored packet 31862 at time 849
Reenqueueing errored packet 25478 at time 853
Additional hops: 1164
Set signal latency stall time: 12
Reenqueueing errored packet 29085 at time 857
Reenqueueing errored packet 21021 at time 857
Reenqueueing errored packet 22045 at time 866
Additional hops: 1171
Set signal latency stall time: 14
Additional hops: 1180
Set signal latency stall time: 18
Additional hops: 1190
Set signal latency stall time: 20
Reenqueueing errored packet 24231 at time 884
Additional hops: 1198
Set signal latency stall time: 16
Reenqueueing errored packet 23419 at time 889
Additional hops: 1202
Set signal latency stall time: 8
Additional hops: 1208
Set signal latency stall time: 12
Additional hops: 1214
Set signal latency stall time: 12
Reenqueueing errored packet 36326 at time 899
Reenqueueing errored packet 20787 at time 900
Reenqueueing errored packet 28491 at time 902
Reenqueueing errored packet 40455 at time 906
Reenqueueing errored packet 37523 at time 908
Additional hops: 1220
Set signal latency stall time: 12
Additional hops: 1227
Set signal latency stall time: 14
Additional hops: 1238
Set signal latency stall time: 22
Additional hops: 1244
Set signal latency stall time: 12
Reenqueueing errored packet 32071 at time 926
Additional hops: 1252
Set signal latency stall time: 16
Reenqueueing errored packet 32457 at time 929
Reenqueueing errored packet 23443 at time 933
Reenqueueing errored packet 27676 at time 937
Additional hops: 1261
Set signal latency stall time: 18
Reenqueueing errored packet 37783 at time 943
Additional hops: 1266
Set signal latency stall time: 10
Additional hops: 1274
Set signal latency stall time: 16
Additional hops: 1282
Set signal latency stall time: 16
Reenqueueing errored packet 31571 at time 956
Reenqueueing errored packet 17317 at time 959
Reenqueueing errored packet 35669 at time 963
Additional hops: 1293
Set signal latency stall time: 22
Reenqueueing errored packet 27359 at time 969
Additional hops: 1297
Set signal latency stall time: 8
Additional hops: 1304
Set signal latency stall time: 14
Reenqueueing errored packet 36536 at time 979
Additional hops: 1310
Set signal latency stall time: 12
Additional hops: 1317
Set signal latency stall time: 14
Additional hops: 1323
Set signal latency stall time: 12
Additional hops: 1329
Set signal latency stall time: 12
Reenqueueing errored packet 19069 at time 986
Reenqueueing errored packet 33631 at time 990
Additional hops: 1334
Set signal latency stall time: 10
Reenqueueing errored packet 28453 at time 995
Reenqueueing errored packet 25380 at time 998
Reenqueueing errored packet 33681 at time 998
Reenqueueing errored packet 33949 at time 999
Additional hops: 1342
Set signal latency stall time: 16
Reenqueueing errored packet 37823 at time 1003
Additional hops: 1346
Set signal latency stall time: 8
Reenqueueing errored packet 32735 at time 1014
Reenqueueing errored packet 30754 at time 1017
Additional hops: 1354
Set signal latency stall time: 16
Additional hops: 1367
Set signal latency stall time: 26
Additional hops: 1372
Set signal latency stall time: 10
Additional hops: 1377
Set signal latency stall time: 10
Additional hops: 1387
Set signal latency stall time: 20
Reenqueueing errored packet 32394 at time 1034
Additional hops: 1392
Set signal latency stall time: 10
Reenqueueing errored packet 28092 at time 1038
Additional hops: 1400
Set signal latency stall time: 16
Additional hops: 1411
Set signal latency stall time: 22
Additional hops: 1420
Set signal latency stall time: 18
Reenqueueing errored packet 29053 at time 1041
Additional hops: 1426
Set signal latency stall time: 12
Additional hops: 1429
Set signal latency stall time: 6
Reenqueueing errored packet 30944 at time 1048
Reenqueueing errored packet 22969 at time 1048
Additional hops: 1434
Set signal latency stall time: 10
Reenqueueing errored packet 49360 at time 1050
Additional hops: 1441
Set signal latency stall time: 14
Reenqueueing errored packet 20965 at time 1052
Reenqueueing errored packet 38185 at time 1054
Reenqueueing errored packet 23104 at time 1055
Reenqueueing errored packet 38945 at time 1059
Reenqueueing errored packet 39905 at time 1060
Additional hops: 1451
Set signal latency stall time: 20
Reenqueueing errored packet 19573 at time 1062
Reenqueueing errored packet 38854 at time 1066
Additional hops: 1456
Set signal latency stall time: 10
Additional hops: 1464
Set signal latency stall time: 16
Reenqueueing errored packet 29701 at time 1082
Reenqueueing errored packet 50469 at time 1085
Additional hops: 1472
Set signal latency stall time: 16
Additional hops: 1481
Set signal latency stall time: 18
Additional hops: 1488
Set signal latency stall time: 14
Reenqueueing errored packet 39641 at time 1096
Additional hops: 1492
Set signal latency stall time: 8
Reenqueueing errored packet 48454 at time 1105
Reenqueueing errored packet 36468 at time 1108
Reenqueueing errored packet 28251 at time 1108
Reenqueueing errored packet 25809 at time 1111
Additional hops: 1498
Set signal latency stall time: 12
Additional hops: 1512
Set signal latency stall time: 28
Additional hops: 1518
Set signal latency stall time: 12
Additional hops: 1520
Set signal latency stall time: 4
Reenqueueing errored packet 46883 at time 1125
Reenqueueing errored packet 28562 at time 1127
Reenqueueing errored packet 29611 at time 1131
Additional hops: 1525
Set signal latency stall time: 10
Additional hops: 1535
Set signal latency stall time: 20
Additional hops: 1541
Set signal latency stall time: 12
Additional hops: 1545
Set signal latency stall time: 8
Reenqueueing errored packet 46737 at time 1145
Reenqueueing errored packet 22877 at time 1146
Reenqueueing errored packet 35860 at time 1153
Reenqueueing errored packet 35511 at time 1157
Additional hops: 1549
Set signal latency stall time: 8
Additional hops: 1559
Set signal latency stall time: 20
Reenqueueing errored packet 26795 at time 1159
Additional hops: 1565
Set signal latency stall time: 12
Additional hops: 1571
Set signal latency stall time: 12
Additional hops: 1577
Set signal latency stall time: 12
Reenqueueing errored packet 49537 at time 1166
Reenqueueing errored packet 44238 at time 1172
Additional hops: 1584
Set signal latency stall time: 14
Reenqueueing errored packet 44410 at time 1176
Reenqueueing errored packet 41176 at time 1176
Reenqueueing errored packet 42200 at time 1178
Additional hops: 1588
Set signal latency stall time: 8
Additional hops: 1598
Set signal latency stall time: 20
Additional hops: 1599
Set signal latency stall time: 2
Reenqueueing errored packet 36813 at time 1187
Reenqueueing errored packet 56483 at time 1189
Reenqueueing errored packet 38283 at time 1190
Additional hops: 1605
Set signal latency stall time: 12
Additional hops: 1612
Set signal latency stall time: 14
Additional hops: 1617
Set signal latency stall time: 10
Additional hops: 1624
Set signal latency stall time: 14
Additional hops: 1629
Set signal latency stall time: 10
Reenqueueing errored packet 27315 at time 1203
Reenqueueing errored packet 43762 at time 1205
Reenqueueing errored packet 46180 at time 1205
Reenqueueing errored packet 35866 at time 1208
Additional hops: 1632
Set signal latency stall time: 6
Reenqueueing errored packet 50927 at time 1212
Additional hops: 1642
Set signal latency stall time: 20
Reenqueueing errored packet 35789 at time 1215
Reenqueueing errored packet 57326 at time 1218
Additional hops: 1650
Set signal latency stall time: 16
Additional hops: 1656
Set signal latency stall time: 12
Additional hops: 1667
Set signal latency stall time: 22
Additional hops: 1681
Set signal latency stall time: 28
Additional hops: 1687
Set signal latency stall time: 12
Reenqueueing errored packet 28759 at time 1233
Additional hops: 1695
Set signal latency stall time: 16
Reenqueueing errored packet 45016 at time 1240
Reenqueueing errored packet 44444 at time 1243
Reenqueueing errored packet 43172 at time 1244
Additional hops: 1703
Set signal latency stall time: 16
Reenqueueing errored packet 36392 at time 1250
Reenqueueing errored packet 24908 at time 1254
Additional hops: 1714
Set signal latency stall time: 22
Reenqueueing errored packet 24412 at time 1259
Reenqueueing errored packet 27853 at time 1265
Additional hops: 1723
Set signal latency stall time: 18
Additional hops: 1727
Set signal latency stall time: 8
Additional hops: 1735
Set signal latency stall time: 16
Additional hops: 1742
Set signal latency stall time: 14
Reenqueueing errored packet 29610 at time 1279
Reenqueueing errored packet 35289 at time 1282
Reenqueueing errored packet 37122 at time 1287
Additional hops: 1748
Set signal latency stall time: 12
Reenqueueing errored packet 33122 at time 1292
Additional hops: 1759
Set signal latency stall time: 22
Additional hops: 1763
Set signal latency stall time: 8
Reenqueueing errored packet 54026 at time 1293
Reenqueueing errored packet 50177 at time 1301
Additional hops: 1768
Set signal latency stall time: 10
Reenqueueing errored packet 42568 at time 1303
Additional hops: 1775
Set signal latency stall time: 14
Additional hops: 1783
Set signal latency stall time: 16
Reenqueueing errored packet 61199 at time 1313
Additional hops: 1791
Set signal latency stall time: 16
Reenqueueing errored packet 31446 at time 1315
Reenqueueing errored packet 34323 at time 1318
Additional hops: 1794
Set signal latency stall time: 6
Reenqueueing errored packet 43406 at time 1325
Additional hops: 1798
Set signal latency stall time: 8
Reenqueueing errored packet 56424 at time 1330
Additional hops: 1807
Set signal latency stall time: 18
Reenqueueing errored packet 48712 at time 1331
Additional hops: 1812
Set signal latency stall time: 10
Reenqueueing errored packet 52227 at time 1335
Additional hops: 1817
Set signal latency stall time: 10
Reenqueueing errored packet 37415 at time 1344
Reenqueueing errored packet 50090 at time 1349
Additional hops: 1825
Set signal latency stall time: 16
Reenqueueing errored packet 61490 at time 1352
Additional hops: 1833
Set signal latency stall time: 16
Reenqueueing errored packet 36731 at time 1366
Additional hops: 1838
Set signal latency stall time: 10
Additional hops: 1846
Set signal latency stall time: 16
Additional hops: 1857
Set signal latency stall time: 22
Additional hops: 1860
Set signal latency stall time: 6
Reenqueueing errored packet 52753 at time 1379
Reenqueueing errored packet 51392 at time 1381
Reenqueueing errored packet 57985 at time 1384
Additional hops: 1867
Set signal latency stall time: 14
Reenqueueing errored packet 49087 at time 1391
Additional hops: 1871
Set signal latency stall time: 8
Additional hops: 1878
Set signal latency stall time: 14
Reenqueueing errored packet 34272 at time 1398
Additional hops: 1885
Set signal latency stall time: 14
Reenqueueing errored packet 37618 at time 1401
Reenqueueing errored packet 54104 at time 1405
Additional hops: 1897
Set signal latency stall time: 24
Additional hops: 1906
Set signal latency stall time: 18
Reenqueueing errored packet 37520 at time 1412
Additional hops: 1915
Set signal latency stall time: 18
Additional hops: 1928
Set signal latency stall time: 26
Reenqueueing errored packet 42620 at time 1414
Additional hops: 1933
Set signal latency stall time: 10
Additional hops: 1944
Set signal latency stall time: 22
Additional hops: 1951
Set signal latency stall time: 14
Additional hops: 1956
Set signal latency stall time: 10
Additional hops: 1963
Set signal latency stall time: 14
Additional hops: 1966
Set signal latency stall time: 6
Reenqueueing errored packet 58476 at time 1427
Additional hops: 1970
Set signal latency stall time: 8
Additional hops: 1974
Set signal latency stall time: 8
Reenqueueing errored packet 48013 at time 1430
Reenqueueing errored packet 44565 at time 1431
Reenqueueing errored packet 31888 at time 1431
Additional hops: 1979
Set signal latency stall time: 10
Reenqueueing errored packet 46807 at time 1433
Reenqueueing errored packet 48376 at time 1435
Reenqueueing errored packet 42359 at time 1435
Reenqueueing errored packet 44701 at time 1438
Reenqueueing errored packet 66542 at time 1438
Additional hops: 1983
Set signal latency stall time: 8
Reenqueueing errored packet 27659 at time 1440
Reenqueueing errored packet 44845 at time 1441
Additional hops: 1987
Set signal latency stall time: 8
Reenqueueing errored packet 34607 at time 1442
Reenqueueing errored packet 60671 at time 1443
Additional hops: 1995
Set signal latency stall time: 16
Reenqueueing errored packet 67522 at time 1448
Reenqueueing errored packet 65563 at time 1450
Additional hops: 2002
Set signal latency stall time: 14
Additional hops: 2007
Set signal latency stall time: 10
Additional hops: 2014
Set signal latency stall time: 14
Reenqueueing errored packet 42810 at time 1464
Reenqueueing errored packet 66584 at time 1470
Additional hops: 2023
Set signal latency stall time: 18
Reenqueueing errored packet 36307 at time 1471
Reenqueueing errored packet 52922 at time 1476
Additional hops: 2032
Set signal latency stall time: 18
Additional hops: 2039
Set signal latency stall time: 14
Additional hops: 2047
Set signal latency stall time: 16
Additional hops: 2054
Set signal latency stall time: 14
Additional hops: 2061
Set signal latency stall time: 14
Additional hops: 2065
Set signal latency stall time: 8
Reenqueueing errored packet 34343 at time 1489
Additional hops: 2068
Set signal latency stall time: 6
Reenqueueing errored packet 45957 at time 1494
Reenqueueing errored packet 53597 at time 1495
Reenqueueing errored packet 68102 at time 1496
Reenqueueing errored packet 46602 at time 1497
Reenqueueing errored packet 44921 at time 1497
Additional hops: 2073
Set signal latency stall time: 10
Reenqueueing errored packet 40848 at time 1498
Reenqueueing errored packet 51296 at time 1498
Reenqueueing errored packet 50101 at time 1508
Additional hops: 2077
Set signal latency stall time: 8
Additional hops: 2087
Set signal latency stall time: 20
Additional hops: 2093
Set signal latency stall time: 12
Reenqueueing errored packet 70706 at time 1517
Additional hops: 2101
Set signal latency stall time: 16
Additional hops: 2109
Set signal latency stall time: 16
Additional hops: 2114
Set signal latency stall time: 10
Reenqueueing errored packet 56702 at time 1527
Additional hops: 2121
Set signal latency stall time: 14
Reenqueueing errored packet 56528 at time 1530
Additional hops: 2126
Set signal latency stall time: 10
Reenqueueing errored packet 52691 at time 1531
Additional hops: 2134
Set signal latency stall time: 16
Reenqueueing errored packet 44351 at time 1534
Additional hops: 2140
Set signal latency stall time: 12
Additional hops: 2145
Set signal latency stall time: 10
Reenqueueing errored packet 42134 at time 1536
Additional hops: 2148
Set signal latency stall time: 6
Reenqueueing errored packet 59846 at time 1541
Reenqueueing errored packet 45673 at time 1544
Reenqueueing errored packet 58261 at time 1545
Reenqueueing errored packet 40489 at time 1546
Reenqueueing errored packet 40161 at time 1547
Reenqueueing errored packet 54323 at time 1548
Additional hops: 2154
Set signal latency stall time: 12
Additional hops: 2158
Set signal latency stall time: 8
Additional hops: 2165
Set signal latency stall time: 14
Reenqueueing errored packet 73610 at time 1560
Reenqueueing errored packet 59709 at time 1564
Additional hops: 2171
Set signal latency stall time: 12
Reenqueueing errored packet 40806 at time 1572
Additional hops: 2175
Set signal latency stall time: 8
Additional hops: 2181
Set signal latency stall time: 12
Reenqueueing errored packet 63227 at time 1579
Additional hops: 2191
Set signal latency stall time: 20
Reenqueueing errored packet 74622 at time 1582
Additional hops: 2193
Set signal latency stall time: 4
Reenqueueing errored packet 75421 at time 1588
Reenqueueing errored packet 61126 at time 1590
Additional hops: 2199
Set signal latency stall time: 12
Reenqueueing errored packet 43496 at time 1600
Additional hops: 2205
Set signal latency stall time: 12
Additional hops: 2212
Set signal latency stall time: 14
Additional hops: 2215
Set signal latency stall time: 6
Reenqueueing errored packet 45892 at time 1606
Additional hops: 2223
Set signal latency stall time: 16
Reenqueueing errored packet 61064 at time 1610
Reenqueueing errored packet 50968 at time 1615
Additional hops: 2233
Set signal latency stall time: 20
Reenqueueing errored packet 57866 at time 1617
Additional hops: 2239
Set signal latency stall time: 12
Reenqueueing errored packet 64640 at time 1624
Additional hops: 2248
Set signal latency stall time: 18
Additional hops: 2251
Set signal latency stall time: 6
Additional hops: 2265
Set signal latency stall time: 28
Reenqueueing errored packet 60455 at time 1633
Reenqueueing errored packet 44179 at time 1633
Reenqueueing errored packet 38752 at time 1636
Additional hops: 2271
Set signal latency stall time: 12
Additional hops: 2279
Set signal latency stall time: 16
Reenqueueing errored packet 54937 at time 1645
Additional hops: 2284
Set signal latency stall time: 10
Reenqueueing errored packet 63680 at time 1650
Additional hops: 2290
Set signal latency stall time: 12
Reenqueueing errored packet 35852 at time 1655
Reenqueueing errored packet 65531 at time 1659
Additional hops: 2302
Set signal latency stall time: 24
Reenqueueing errored packet 33744 at time 1661
Reenqueueing errored packet 52539 at time 1664
Additional hops: 2311
Set signal latency stall time: 18
Additional hops: 2318
Set signal latency stall time: 14
Additional hops: 2332
Set signal latency stall time: 28
Additional hops: 2343
Set signal latency stall time: 22
Reenqueueing errored packet 36608 at time 1684
Additional hops: 2349
Set signal latency stall time: 12
Reenqueueing errored packet 74335 at time 1689
Reenqueueing errored packet 60957 at time 1691
Additional hops: 2359
Set signal latency stall time: 20
Reenqueueing errored packet 57993 at time 1699
Reenqueueing errored packet 39226 at time 1703
Reenqueueing errored packet 36105 at time 1706
Additional hops: 2366
Set signal latency stall time: 14
Additional hops: 2371
Set signal latency stall time: 10
Additional hops: 2379
Set signal latency stall time: 16
Additional hops: 2385
Set signal latency stall time: 12
Additional hops: 2394
Set signal latency stall time: 18
Additional hops: 2401
Set signal latency stall time: 14
Reenqueueing errored packet 73027 at time 1718
Reenqueueing errored packet 45975 at time 1718
Additional hops: 2410
Set signal latency stall time: 18
Reenqueueing errored packet 63081 at time 1721
Additional hops: 2413
Set signal latency stall time: 6
Reenqueueing errored packet 57793 at time 1722
Reenqueueing errored packet 50030 at time 1724
Reenqueueing errored packet 65736 at time 1728
Additional hops: 2417
Set signal latency stall time: 8
Reenqueueing errored packet 57838 at time 1729
Reenqueueing errored packet 72470 at time 1732
Reenqueueing errored packet 52393 at time 1737
Reenqueueing errored packet 50259 at time 1738
Additional hops: 2426
Set signal latency stall time: 18
Additional hops: 2432
Set signal latency stall time: 12
Additional hops: 2442
Set signal latency stall time: 20
Reenqueueing errored packet 78931 at time 1760
Additional hops: 2449
Set signal latency stall time: 14
Additional hops: 2460
Set signal latency stall time: 22
Reenqueueing errored packet 40537 at time 1761
Additional hops: 2472
Set signal latency stall time: 24
Additional hops: 2478
Set signal latency stall time: 12
Additional hops: 2485
Set signal latency stall time: 14
Reenqueueing errored packet 70695 at time 1775
Additional hops: 2494
Set signal latency stall time: 18
Additional hops: 2503
Set signal latency stall time: 18
Reenqueueing errored packet 56539 at time 1777
Reenqueueing errored packet 46648 at time 1778
Reenqueueing errored packet 44833 at time 1780
Additional hops: 2508
Set signal latency stall time: 10
Additional hops: 2517
Set signal latency stall time: 18
Reenqueueing errored packet 43576 at time 1783
Reenqueueing errored packet 37380 at time 1788
Additional hops: 2522
Set signal latency stall time: 10
Reenqueueing errored packet 53822 at time 1791
Reenqueueing errored packet 39310 at time 1795
Reenqueueing errored packet 42530 at time 1795
Additional hops: 2529
Set signal latency stall time: 14
Additional hops: 2538
Set signal latency stall time: 18
Reenqueueing errored packet 74094 at time 1800
Reenqueueing errored packet 64184 at time 1801
Additional hops: 2541
Set signal latency stall time: 6
Additional hops: 2549
Set signal latency stall time: 16
Additional hops: 2558
Set signal latency stall time: 18
Additional hops: 2565
Set signal latency stall time: 14
Reenqueueing errored packet 82065 at time 1808
Additional hops: 2573
Set signal latency stall time: 16
Additional hops: 2576
Set signal latency stall time: 6
Reenqueueing errored packet 52147 at time 1813
Additional hops: 2582
Set signal latency stall time: 12
Additional hops: 2588
Set signal latency stall time: 12
Reenqueueing errored packet 66663 at time 1817
Additional hops: 2599
Set signal latency stall time: 22
Reenqueueing errored packet 79323 at time 1818
Reenqueueing errored packet 53167 at time 1818
Reenqueueing errored packet 57992 at time 1818
Additional hops: 2604
Set signal latency stall time: 10
Reenqueueing errored packet 53594 at time 1821
Additional hops: 2610
Set signal latency stall time: 12
Reenqueueing errored packet 37821 at time 1826
Reenqueueing errored packet 67350 at time 1829
Reenqueueing errored packet 51353 at time 1829
Reenqueueing errored packet 69971 at time 1829
Additional hops: 2614
Set signal latency stall time: 8
Additional hops: 2625
Set signal latency stall time: 22
Reenqueueing errored packet 68686 at time 1838
Reenqueueing errored packet 60802 at time 1839
Reenqueueing errored packet 42840 at time 1840
Additional hops: 2629
Set signal latency stall time: 8
Additional hops: 2632
Set signal latency stall time: 6
Additional hops: 2638
Set signal latency stall time: 12
Reenqueueing errored packet 67571 at time 1852
Reenqueueing errored packet 77170 at time 1854
Additional hops: 2647
Set signal latency stall time: 18
Additional hops: 2655
Set signal latency stall time: 16
Additional hops: 2665
Set signal latency stall time: 20
Reenqueueing errored packet 54553 at time 1860
Reenqueueing errored packet 70554 at time 1863
Additional hops: 2669
Set signal latency stall time: 8
Additional hops: 2677
Set signal latency stall time: 16
Reenqueueing errored packet 40699 at time 1871
Additional hops: 2687
Set signal latency stall time: 20
Reenqueueing errored packet 67572 at time 1873
Reenqueueing errored packet 49019 at time 1875
Reenqueueing errored packet 73318 at time 1877
Additional hops: 2696
Set signal latency stall time: 18
Additional hops: 2702
Set signal latency stall time: 12
Reenqueueing errored packet 54418 at time 1886
Additional hops: 2704
Set signal latency stall time: 4
Additional hops: 2709
Set signal latency stall time: 10
Reenqueueing errored packet 75620 at time 1892
Additional hops: 2715
Set signal latency stall time: 12
Reenqueueing errored packet 58756 at time 1893
Additional hops: 2723
Set signal latency stall time: 16
Additional hops: 2728
Set signal latency stall time: 10
Reenqueueing errored packet 69620 at time 1897
Additional hops: 2739
Set signal latency stall time: 22
Reenqueueing errored packet 54589 at time 1899
Additional hops: 2745
Set signal latency stall time: 12
Additional hops: 2753
Set signal latency stall time: 16
Reenqueueing errored packet 64461 at time 1903
Reenqueueing errored packet 61501 at time 1905
Additional hops: 2761
Set signal latency stall time: 16
Reenqueueing errored packet 67222 at time 1907
Reenqueueing errored packet 80267 at time 1912
Additional hops: 2768
Set signal latency stall time: 14
Reenqueueing errored packet 67090 at time 1913
Additional hops: 2775
Set signal latency stall time: 14
Reenqueueing errored packet 60574 at time 1916
Additional hops: 2782
Set signal latency stall time: 14
Reenqueueing errored packet 37750 at time 1920
Additional hops: 2789
Set signal latency stall time: 14
Additional hops: 2792
Set signal latency stall time: 6
Reenqueueing errored packet 65950 at time 1923
Additional hops: 2808
Set signal latency stall time: 32
Reenqueueing errored packet 56082 at time 1927
Additional hops: 2813
Set signal latency stall time: 10
Reenqueueing errored packet 91558 at time 1929
Reenqueueing errored packet 69719 at time 1930
Additional hops: 2825
Set signal latency stall time: 24
Additional hops: 2834
Set signal latency stall time: 18
Additional hops: 2836
Set signal latency stall time: 4
Reenqueueing errored packet 51372 at time 1934
Reenqueueing errored packet 43718 at time 1937
Reenqueueing errored packet 70852 at time 1938
Additional hops: 2839
Set signal latency stall time: 6
Reenqueueing errored packet 69856 at time 1939
Reenqueueing errored packet 90359 at time 1945
Additional hops: 2844
Set signal latency stall time: 10
Additional hops: 2850
Set signal latency stall time: 12
Reenqueueing errored packet 62918 at time 1949
Additional hops: 2856
Set signal latency stall time: 12
Additional hops: 2866
Set signal latency stall time: 20
Reenqueueing errored packet 39350 at time 1955
Reenqueueing errored packet 76855 at time 1956
Reenqueueing errored packet 64640 at time 1957
Reenqueueing errored packet 51997 at time 1960
Additional hops: 2877
Set signal latency stall time: 22
Additional hops: 2881
Set signal latency stall time: 8
Reenqueueing errored packet 48672 at time 1964
Additional hops: 2884
Set signal latency stall time: 6
Reenqueueing errored packet 60513 at time 1970
Additional hops: 2889
Set signal latency stall time: 10
Reenqueueing errored packet 93552 at time 1973
Additional hops: 2896
Set signal latency stall time: 14
Reenqueueing errored packet 40488 at time 1974
Additional hops: 2899
Set signal latency stall time: 6
Reenqueueing errored packet 77148 at time 1981
Additional hops: 2903
Set signal latency stall time: 8
Reenqueueing errored packet 41814 at time 1983
Additional hops: 2911
Set signal latency stall time: 16
Reenqueueing errored packet 82447 at time 1987
Additional hops: 2920
Set signal latency stall time: 18
Reenqueueing errored packet 60852 at time 1988
Reenqueueing errored packet 70472 at time 1991
Additional hops: 2926
Set signal latency stall time: 12
Additional hops: 2932
Set signal latency stall time: 12
Reenqueueing errored packet 73300 at time 2002
Additional hops: 2940
Set signal latency stall time: 16
Reenqueueing errored packet 75061 at time 2006
Additional hops: 2946
Set signal latency stall time: 12
Reenqueueing errored packet 50690 at time 2010
Additional hops: 2949
Set signal latency stall time: 6
Reenqueueing errored packet 68353 at time 2011
Reenqueueing errored packet 64684 at time 2017
Reenqueueing errored packet 75111 at time 2019
Reenqueueing errored packet 44341 at time 2019
Additional hops: 2956
Set signal latency stall time: 14
Additional hops: 2957
Set signal latency stall time: 2
Reenqueueing errored packet 96565 at time 2023
Additional hops: 2965
Set signal latency stall time: 16
Additional hops: 2974
Set signal latency stall time: 18
Additional hops: 2980
Set signal latency stall time: 12
Reenqueueing errored packet 76074 at time 2035
Additional hops: 2987
Set signal latency stall time: 14
Reenqueueing errored packet 87901 at time 2047
Reenqueueing errored packet 70548 at time 2047
Additional hops: 2996
Set signal latency stall time: 18
Additional hops: 3007
Set signal latency stall time: 22
Reenqueueing errored packet 68573 at time 2052
Reenqueueing errored packet 56709 at time 2054
Additional hops: 3012
Set signal latency stall time: 10
Additional hops: 3022
Set signal latency stall time: 20
Additional hops: 3027
Set signal latency stall time: 10
Additional hops: 3035
Set signal latency stall time: 16
Additional hops: 3046
Set signal latency stall time: 22
Reenqueueing errored packet 72439 at time 2066
Reenqueueing errored packet 49581 at time 2066
Additional hops: 3051
Set signal latency stall time: 10
Additional hops: 3054
Set signal latency stall time: 6
Reenqueueing errored packet 51973 at time 2071
Reenqueueing errored packet 60386 at time 2072
Reenqueueing errored packet 79894 at time 2076
Reenqueueing errored packet 88703 at time 2077
Reenqueueing errored packet 75653 at time 2077
Reenqueueing errored packet 74645 at time 2080
Additional hops: 3057
Set signal latency stall time: 6
Additional hops: 3064
Set signal latency stall time: 14
Reenqueueing errored packet 99089 at time 2088
Reenqueueing errored packet 51922 at time 2088
Additional hops: 3069
Set signal latency stall time: 10
Additional hops: 3078
Set signal latency stall time: 18
Additional hops: 3085
Set signal latency stall time: 14
Additional hops: 3094
Set signal latency stall time: 18
Additional hops: 3106
Set signal latency stall time: 24
Additional hops: 3111
Set signal latency stall time: 10
Additional hops: 3123
Set signal latency stall time: 24
Additional hops: 3125
Set signal latency stall time: 4
Reenqueueing errored packet 87767 at time 2099
Reenqueueing errored packet 76947 at time 2101
Additional hops: 3129
Set signal latency stall time: 8
Reenqueueing errored packet 100035 at time 2103
Reenqueueing errored packet 52772 at time 2106
Reenqueueing errored packet 76490 at time 2108
Reenqueueing errored packet 64602 at time 2109
Reenqueueing errored packet 97261 at time 2110
Reenqueueing errored packet 63158 at time 2111
Additional hops: 3135
Set signal latency stall time: 12
Additional hops: 3137
Set signal latency stall time: 4
Reenqueueing errored packet 54188 at time 2122
Reenqueueing errored packet 43792 at time 2122
Reenqueueing errored packet 101055 at time 2123
Reenqueueing errored packet 55451 at time 2124
Additional hops: 3145
Set signal latency stall time: 16
Additional hops: 3151
Set signal latency stall time: 12
Additional hops: 3160
Set signal latency stall time: 18
Additional hops: 3165
Set signal latency stall time: 10
Additional hops: 3173
Set signal latency stall time: 16
Additional hops: 3182
Set signal latency stall time: 18
Additional hops: 3187
Set signal latency stall time: 10
Reenqueueing errored packet 89321 at time 2144
Reenqueueing errored packet 61577 at time 2144
Reenqueueing errored packet 46705 at time 2144
Additional hops: 3192
Set signal latency stall time: 10
Additional hops: 3197
Set signal latency stall time: 10
Reenqueueing errored packet 54412 at time 2151
Reenqueueing errored packet 64573 at time 2152
Additional hops: 3201
Set signal latency stall time: 8
Reenqueueing errored packet 82758 at time 2154
Reenqueueing errored packet 57500 at time 2155
Additional hops: 3205
Set signal latency stall time: 8
Additional hops: 3217
Set signal latency stall time: 24
Reenqueueing errored packet 62665 at time 2159
Additional hops: 3227
Set signal latency stall time: 20
Reenqueueing errored packet 90951 at time 2162
Reenqueueing errored packet 57008 at time 2162
Reenqueueing errored packet 94080 at time 2164
Additional hops: 3230
Set signal latency stall time: 6
Additional hops: 3240
Set signal latency stall time: 20
Additional hops: 3247
Set signal latency stall time: 14
Additional hops: 3254
Set signal latency stall time: 14
Reenqueueing errored packet 102406 at time 2171
Additional hops: 3262
Set signal latency stall time: 16
Additional hops: 3268
Set signal latency stall time: 12
Reenqueueing errored packet 95585 at time 2180
Reenqueueing errored packet 43786 at time 2181
Additional hops: 3274
Set signal latency stall time: 12
Reenqueueing errored packet 75314 at time 2182
Reenqueueing errored packet 50980 at time 2183
Reenqueueing errored packet 48039 at time 2185
Additional hops: 3283
Set signal latency stall time: 18
Reenqueueing errored packet 67809 at time 2186
Additional hops: 3291
Set signal latency stall time: 16
Reenqueueing errored packet 53814 at time 2188
Additional hops: 3299
Set signal latency stall time: 16
Reenqueueing errored packet 85509 at time 2194
Additional hops: 3305
Set signal latency stall time: 12
Additional hops: 3316
Set signal latency stall time: 22
Additional hops: 3322
Set signal latency stall time: 12
Additional hops: 3330
Set signal latency stall time: 16
Additional hops: 3335
Set signal latency stall time: 10
Additional hops: 3347
Set signal latency stall time: 24
Reenqueueing errored packet 54792 at time 2204
Reenqueueing errored packet 65923 at time 2207
Additional hops: 3358
Set signal latency stall time: 22
Additional hops: 3366
Set signal latency stall time: 16
Additional hops: 3372
Set signal latency stall time: 12
Reenqueueing errored packet 64517 at time 2210
Additional hops: 3381
Set signal latency stall time: 18
Additional hops: 3391
Set signal latency stall time: 20
Additional hops: 3397
Set signal latency stall time: 12
Reenqueueing errored packet 66055 at time 2213
Reenqueueing errored packet 81058 at time 2214
Additional hops: 3404
Set signal latency stall time: 14
Additional hops: 3408
Set signal latency stall time: 8
Reenqueueing errored packet 54896 at time 2217
Additional hops: 3410
Set signal latency stall time: 4
Additional hops: 3415
Set signal latency stall time: 10
Reenqueueing errored packet 73051 at time 2219
Additional hops: 3422
Set signal latency stall time: 14
Reenqueueing errored packet 94038 at time 2222
Reenqueueing errored packet 86855 at time 2222
Additional hops: 3427
Set signal latency stall time: 10
Additional hops: 3439
Set signal latency stall time: 24
Reenqueueing errored packet 81157 at time 2225
Reenqueueing errored packet 101119 at time 2225
Reenqueueing errored packet 62300 at time 2225
Additional hops: 3450
Set signal latency stall time: 22
Reenqueueing errored packet 48600 at time 2228
Additional hops: 3462
Set signal latency stall time: 24
Additional hops: 3469
Set signal latency stall time: 14
Reenqueueing errored packet 81215 at time 2229
Reenqueueing errored packet 64154 at time 2231
Reenqueueing errored packet 79020 at time 2231
Reenqueueing errored packet 52627 at time 2231
Reenqueueing errored packet 50802 at time 2233
Reenqueueing errored packet 61405 at time 2235
Reenqueueing errored packet 86263 at time 2235
Additional hops: 3474
Set signal latency stall time: 10
Reenqueueing errored packet 60610 at time 2243
Additional hops: 3477
Set signal latency stall time: 6
Reenqueueing errored packet 57122 at time 2249
Reenqueueing errored packet 46946 at time 2250
Additional hops: 3482
Set signal latency stall time: 10
Reenqueueing errored packet 83242 at time 2251
Reenqueueing errored packet 87062 at time 2253
Reenqueueing errored packet 55877 at time 2253
Additional hops: 3492
Set signal latency stall time: 20
Reenqueueing errored packet 82892 at time 2261
Additional hops: 3499
Set signal latency stall time: 14
Additional hops: 3506
Set signal latency stall time: 14
Additional hops: 3514
Set signal latency stall time: 16
Additional hops: 3525
Set signal latency stall time: 22
Additional hops: 3532
Set signal latency stall time: 14
Reenqueueing errored packet 67083 at time 2275
Additional hops: 3544
Set signal latency stall time: 24
Reenqueueing errored packet 64434 at time 2282
Reenqueueing errored packet 95602 at time 2284
Reenqueueing errored packet 88161 at time 2288
Reenqueueing errored packet 94499 at time 2288
Additional hops: 3552
Set signal latency stall time: 16
Additional hops: 3556
Set signal latency stall time: 8
Reenqueueing errored packet 47492 at time 2296
Additional hops: 3563
Set signal latency stall time: 14
Reenqueueing errored packet 94789 at time 2303
Reenqueueing errored packet 70356 at time 2303
Additional hops: 3570
Set signal latency stall time: 14
Additional hops: 3579
Set signal latency stall time: 18
Reenqueueing errored packet 58024 at time 2309
Additional hops: 3587
Set signal latency stall time: 16
Reenqueueing errored packet 84622 at time 2316
Reenqueueing errored packet 86385 at time 2319
Additional hops: 3597
Set signal latency stall time: 20
Reenqueueing errored packet 78204 at time 2326
Reenqueueing errored packet 69946 at time 2332
Additional hops: 3608
Set signal latency stall time: 22
Additional hops: 3612
Set signal latency stall time: 8
Reenqueueing errored packet 66419 at time 2345
Additional hops: 3614
Set signal latency stall time: 4
Reenqueueing errored packet 99305 at time 2349
Reenqueueing errored packet 98544 at time 2351
Additional hops: 3621
Set signal latency stall time: 14
Reenqueueing errored packet 71867 at time 2359
Additional hops: 3628
Set signal latency stall time: 14
Additional hops: 3635
Set signal latency stall time: 14
Additional hops: 3640
Set signal latency stall time: 10
Additional hops: 3647
Set signal latency stall time: 14
Reenqueueing errored packet 66887 at time 2373
Reenqueueing errored packet 72115 at time 2374
Additional hops: 3651
Set signal latency stall time: 8
Additional hops: 3661
Set signal latency stall time: 20
Reenqueueing errored packet 100308 at time 2376
Reenqueueing errored packet 70944 at time 2379
Reenqueueing errored packet 81493 at time 2380
Additional hops: 3667
Set signal latency stall time: 12
Additional hops: 3674
Set signal latency stall time: 14
Reenqueueing errored packet 108198 at time 2383
Additional hops: 3684
Set signal latency stall time: 20
Additional hops: 3693
Set signal latency stall time: 18
Additional hops: 3699
Set signal latency stall time: 12
Additional hops: 3704
Set signal latency stall time: 10
Additional hops: 3714
Set signal latency stall time: 20
Reenqueueing errored packet 79173 at time 2394
Reenqueueing errored packet 52951 at time 2395
Reenqueueing errored packet 57185 at time 2397
Reenqueueing errored packet 88980 at time 2398
Reenqueueing errored packet 104352 at time 2399
Additional hops: 3722
Set signal latency stall time: 16
Reenqueueing errored packet 93433 at time 2404
Reenqueueing errored packet 74107 at time 2406
Additional hops: 3724
Set signal latency stall time: 4
Additional hops: 3735
Set signal latency stall time: 22
Reenqueueing errored packet 113378 at time 2411
Reenqueueing errored packet 62894 at time 2411
Additional hops: 3741
Set signal latency stall time: 12
Additional hops: 3749
Set signal latency stall time: 16
Additional hops: 3752
Set signal latency stall time: 6
Additional hops: 3754
Set signal latency stall time: 4
Additional hops: 3765
Set signal latency stall time: 22
Additional hops: 3770
Set signal latency stall time: 10
Reenqueueing errored packet 115326 at time 2420
Reenqueueing errored packet 61440 at time 2420
Reenqueueing errored packet 79117 at time 2421
Reenqueueing errored packet 63073 at time 2425
Additional hops: 3779
Set signal latency stall time: 18
Additional hops: 3787
Set signal latency stall time: 16
Additional hops: 3794
Set signal latency stall time: 14
Reenqueueing errored packet 84482 at time 2430
Additional hops: 3801
Set signal latency stall time: 14
Reenqueueing errored packet 61095 at time 2431
Reenqueueing errored packet 59088 at time 2433
Additional hops: 3811
Set signal latency stall time: 20
Additional hops: 3815
Set signal latency stall time: 8
Reenqueueing errored packet 86339 at time 2441
Additional hops: 3817
Set signal latency stall time: 4
Reenqueueing errored packet 91300 at time 2443
Reenqueueing errored packet 88502 at time 2444
Reenqueueing errored packet 65699 at time 2445
Reenqueueing errored packet 70035 at time 2445
Reenqueueing errored packet 54348 at time 2445
Reenqueueing errored packet 116299 at time 2446
Additional hops: 3822
Set signal latency stall time: 10
Reenqueueing errored packet 68887 at time 2454
Additional hops: 3828
Set signal latency stall time: 12
Additional hops: 3835
Set signal latency stall time: 14
Reenqueueing errored packet 94048 at time 2457
Additional hops: 3844
Set signal latency stall time: 18
Reenqueueing errored packet 89482 at time 2468
Reenqueueing errored packet 66638 at time 2470
Additional hops: 3851
Set signal latency stall time: 14
Additional hops: 3859
Set signal latency stall time: 16
Reenqueueing errored packet 77600 at time 2482
Additional hops: 3868
Set signal latency stall time: 18
Additional hops: 3875
Set signal latency stall time: 14
Additional hops: 3882
Set signal latency stall time: 14
Reenqueueing errored packet 73917 at time 2487
Additional hops: 3888
Set signal latency stall time: 12
Additional hops: 3893
Set signal latency stall time: 10
Additional hops: 3902
Set signal latency stall time: 18
Reenqueueing errored packet 93901 at time 2495
Reenqueueing errored packet 97329 at time 2499
Reenqueueing errored packet 115499 at time 2500
Reenqueueing errored packet 93103 at time 2500
Additional hops: 3914
Set signal latency stall time: 24
Reenqueueing errored packet 102399 at time 2501
Reenqueueing errored packet 82954 at time 2503
Additional hops: 3921
Set signal latency stall time: 14
Reenqueueing errored packet 59308 at time 2508
Additional hops: 3926
Set signal latency stall time: 10
Additional hops: 3931
Set signal latency stall time: 10
Reenqueueing errored packet 71818 at time 2519
Reenqueueing errored packet 95089 at time 2520
Additional hops: 3941
Set signal latency stall time: 20
Reenqueueing errored packet 70107 at time 2525
Reenqueueing errored packet 49526 at time 2525
Additional hops: 3947
Set signal latency stall time: 12
Additional hops: 3953
Set signal latency stall time: 12
Additional hops: 3960
Set signal latency stall time: 14
Additional hops: 3967
Set signal latency stall time: 14
Additional hops: 3973
Set signal latency stall time: 12
Reenqueueing errored packet 90499 at time 2539
Additional hops: 3976
Set signal latency stall time: 6
Additional hops: 3979
Set signal latency stall time: 6
Reenqueueing errored packet 97584 at time 2542
Reenqueueing errored packet 58642 at time 2544
Reenqueueing errored packet 100662 at time 2546
Reenqueueing errored packet 99985 at time 2548
Reenqueueing errored packet 118284 at time 2548
Reenqueueing errored packet 94767 at time 2548
Reenqueueing errored packet 99417 at time 2550
Additional hops: 3987
Set signal latency stall time: 16
Additional hops: 3992
Set signal latency stall time: 10
Additional hops: 3999
Set signal latency stall time: 14
Additional hops: 4003
Set signal latency stall time: 8
Reenqueueing errored packet 102793 at time 2564
Reenqueueing errored packet 111065 at time 2570
Reenqueueing errored packet 57095 at time 2570
Reenqueueing errored packet 96269 at time 2573
Additional hops: 4012
Set signal latency stall time: 18
Additional hops: 4019
Set signal latency stall time: 14
Additional hops: 4022
Set signal latency stall time: 6
Additional hops: 4030
Set signal latency stall time: 16
Reenqueueing errored packet 122876 at time 2584
Additional hops: 4037
Set signal latency stall time: 14
Reenqueueing errored packet 97811 at time 2588
Additional hops: 4046
Set signal latency stall time: 18
Reenqueueing errored packet 77080 at time 2592
Additional hops: 4058
Set signal latency stall time: 24
Additional hops: 4067
Set signal latency stall time: 18
Additional hops: 4076
Set signal latency stall time: 18
Additional hops: 4080
Set signal latency stall time: 8
Reenqueueing errored packet 79032 at time 2600
Reenqueueing errored packet 94815 at time 2602
Additional hops: 4085
Set signal latency stall time: 10
Reenqueueing errored packet 122404 at time 2607
Reenqueueing errored packet 80892 at time 2607
Reenqueueing errored packet 82056 at time 2613
Reenqueueing errored packet 93915 at time 2614
Additional hops: 4089
Set signal latency stall time: 8
Additional hops: 4093
Set signal latency stall time: 8
Reenqueueing errored packet 107966 at time 2617
Reenqueueing errored packet 53516 at time 2617
Additional hops: 4102
Set signal latency stall time: 18
Reenqueueing errored packet 99912 at time 2624
Reenqueueing errored packet 71588 at time 2624
Additional hops: 4108
Set signal latency stall time: 12
Additional hops: 4112
Set signal latency stall time: 8
Additional hops: 4120
Set signal latency stall time: 16
Additional hops: 4124
Set signal latency stall time: 8
Additional hops: 4130
Set signal latency stall time: 12
Additional hops: 4139
Set signal latency stall time: 18
Reenqueueing errored packet 124004 at time 2637
Reenqueueing errored packet 65437 at time 2637
Reenqueueing errored packet 96394 at time 2640
Additional hops: 4145
Set signal latency stall time: 12
Reenqueueing errored packet 105042 at time 2645
Reenqueueing errored packet 66623 at time 2647
Reenqueueing errored packet 109151 at time 2649
Additional hops: 4155
Set signal latency stall time: 20
Reenqueueing errored packet 96811 at time 2655
Reenqueueing errored packet 114789 at time 2657
Additional hops: 4161
Set signal latency stall time: 12
Reenqueueing errored packet 60650 at time 2671
Additional hops: 4171
Set signal latency stall time: 20
Reenqueueing errored packet 77340 at time 2682
Additional hops: 4178
Set signal latency stall time: 14
Additional hops: 4182
Set signal latency stall time: 8
Additional hops: 4191
Set signal latency stall time: 18
Reenqueueing errored packet 57173 at time 2694
Additional hops: 4199
Set signal latency stall time: 16
Additional hops: 4206
Set signal latency stall time: 14
Reenqueueing errored packet 86630 at time 2701
Additional hops: 4211
Set signal latency stall time: 10
Reenqueueing errored packet 90638 at time 2703
Additional hops: 4214
Set signal latency stall time: 6
Additional hops: 4221
Set signal latency stall time: 14
Reenqueueing errored packet 85186 at time 2710
Reenqueueing errored packet 122382 at time 2712
Reenqueueing errored packet 77222 at time 2712
Reenqueueing errored packet 72867 at time 2713
Reenqueueing errored packet 65988 at time 2713
Additional hops: 4226
Set signal latency stall time: 10
Reenqueueing errored packet 80121 at time 2722
Additional hops: 4233
Set signal latency stall time: 14
Reenqueueing errored packet 125829 at time 2731
Additional hops: 4243
Set signal latency stall time: 20
Reenqueueing errored packet 104020 at time 2739
Additional hops: 4249
Set signal latency stall time: 12
Additional hops: 4257
Set signal latency stall time: 16
Additional hops: 4261
Set signal latency stall time: 8
Reenqueueing errored packet 62387 at time 2752
Additional hops: 4266
Set signal latency stall time: 10
Reenqueueing errored packet 107665 at time 2755
Additional hops: 4270
Set signal latency stall time: 8
Reenqueueing errored packet 108758 at time 2760
Reenqueueing errored packet 113610 at time 2760
Additional hops: 4282
Set signal latency stall time: 24
Reenqueueing errored packet 97776 at time 2764
Additional hops: 4293
Set signal latency stall time: 22
Reenqueueing errored packet 117113 at time 2767
Additional hops: 4300
Set signal latency stall time: 14
Additional hops: 4307
Set signal latency stall time: 14
Additional hops: 4312
Set signal latency stall time: 10
Additional hops: 4318
Set signal latency stall time: 12
Reenqueueing errored packet 81070 at time 2782
Additional hops: 4326
Set signal latency stall time: 16
Reenqueueing errored packet 104998 at time 2784
Reenqueueing errored packet 61967 at time 2787
Reenqueueing errored packet 57566 at time 2788
Reenqueueing errored packet 75536 at time 2789
Additional hops: 4339
Set signal latency stall time: 26
Reenqueueing errored packet 83658 at time 2794
Additional hops: 4346
Set signal latency stall time: 14
Reenqueueing errored packet 104749 at time 2799
Additional hops: 4349
Set signal latency stall time: 6
Additional hops: 4352
Set signal latency stall time: 6
Additional hops: 4358
Set signal latency stall time: 12
Additional hops: 4367
Set signal latency stall time: 18
Reenqueueing errored packet 93185 at time 2812
Additional hops: 4370
Set signal latency stall time: 6
Additional hops: 4376
Set signal latency stall time: 12
Reenqueueing errored packet 133717 at time 2813
Reenqueueing errored packet 95543 at time 2814
Additional hops: 4386
Set signal latency stall time: 20
Reenqueueing errored packet 58202 at time 2818
Reenqueueing errored packet 123693 at time 2819
Reenqueueing errored packet 97352 at time 2823
Reenqueueing errored packet 91267 at time 2825
Additional hops: 4388
Set signal latency stall time: 4
Additional hops: 4393
Set signal latency stall time: 10
Reenqueueing errored packet 124760 at time 2830
Reenqueueing errored packet 80202 at time 2830
Additional hops: 4400
Set signal latency stall time: 14
Additional hops: 4411
Set signal latency stall time: 22
Reenqueueing errored packet 57736 at time 2836
Reenqueueing errored packet 109811 at time 2838
Additional hops: 4423
Set signal latency stall time: 24
Additional hops: 4427
Set signal latency stall time: 8
Reenqueueing errored packet 98484 at time 2845
Additional hops: 4436
Set signal latency stall time: 18
Reenqueueing errored packet 131768 at time 2851
Reenqueueing errored packet 67058 at time 2857
Reenqueueing errored packet 81058 at time 2863
Reenqueueing errored packet 64861 at time 2867
Additional hops: 4438
Set signal latency stall time: 4
Reenqueueing errored packet 123008 at time 2873
Additional hops: 4447
Set signal latency stall time: 18
Additional hops: 4454
Set signal latency stall time: 14
Additional hops: 4464
Set signal latency stall time: 20
Additional hops: 4472
Set signal latency stall time: 16
Reenqueueing errored packet 108775 at time 2888
Additional hops: 4483
Set signal latency stall time: 22
Additional hops: 4488
Set signal latency stall time: 10
Reenqueueing errored packet 94238 at time 2892
Reenqueueing errored packet 68541 at time 2894
Additional hops: 4496
Set signal latency stall time: 16
Reenqueueing errored packet 106900 at time 2895
Additional hops: 4505
Set signal latency stall time: 18
Additional hops: 4512
Set signal latency stall time: 14
Additional hops: 4519
Set signal latency stall time: 14
Additional hops: 4529
Set signal latency stall time: 20
Reenqueueing errored packet 131806 at time 2900
Additional hops: 4538
Set signal latency stall time: 18
Additional hops: 4546
Set signal latency stall time: 16
Additional hops: 4557
Set signal latency stall time: 22
Reenqueueing errored packet 96541 at time 2911
Reenqueueing errored packet 71909 at time 2911
Additional hops: 4562
Set signal latency stall time: 10
Reenqueueing errored packet 76625 at time 2913
Reenqueueing errored packet 109331 at time 2914
Additional hops: 4571
Set signal latency stall time: 18
Reenqueueing errored packet 72597 at time 2916
Reenqueueing errored packet 72245 at time 2920
Reenqueueing errored packet 106378 at time 2922
Additional hops: 4578
Set signal latency stall time: 14
Reenqueueing errored packet 72190 at time 2925
Reenqueueing errored packet 69754 at time 2925
Reenqueueing errored packet 76769 at time 2933
Reenqueueing errored packet 89734 at time 2933
Additional hops: 4582
Set signal latency stall time: 8
Reenqueueing errored packet 88298 at time 2937
Reenqueueing errored packet 104430 at time 2944
Additional hops: 4589
Set signal latency stall time: 14
Additional hops: 4598
Set signal latency stall time: 18
Additional hops: 4609
Set signal latency stall time: 22
Additional hops: 4616
Set signal latency stall time: 14
Additional hops: 4629
Set signal latency stall time: 26
Reenqueueing errored packet 110170 at time 2963
Additional hops: 4632
Set signal latency stall time: 6
Reenqueueing errored packet 83240 at time 2968
Reenqueueing errored packet 136411 at time 2974
Reenqueueing errored packet 114339 at time 2974
Reenqueueing errored packet 59203 at time 2974
Additional hops: 4639
Set signal latency stall time: 14
Additional hops: 4646
Set signal latency stall time: 14
Reenqueueing errored packet 62921 at time 2987
Additional hops: 4649
Set signal latency stall time: 6
Additional hops: 4661
Set signal latency stall time: 24
Additional hops: 4668
Set signal latency stall time: 14
Reenqueueing errored packet 111243 at time 2996
Reenqueueing errored packet 126511 at time 2998
Reenqueueing errored packet 94964 at time 3000
Additional hops: 4674
Set signal latency stall time: 12
Reenqueueing errored packet 113722 at time 3009
Additional hops: 4679
Set signal latency stall time: 10
Reenqueueing errored packet 99557 at time 3016
Reenqueueing errored packet 74066 at time 3017
Additional hops: 4689
Set signal latency stall time: 20
Additional hops: 4701
Set signal latency stall time: 24
Additional hops: 4709
Set signal latency stall time: 16
Reenqueueing errored packet 122110 at time 3024
Additional hops: 4717
Set signal latency stall time: 16
Additional hops: 4725
Set signal latency stall time: 16
Additional hops: 4733
Set signal latency stall time: 16
Additional hops: 4742
Set signal latency stall time: 18
Additional hops: 4747
Set signal latency stall time: 10
Reenqueueing errored packet 115855 at time 3040
Reenqueueing errored packet 92601 at time 3043
Reenqueueing errored packet 110714 at time 3045
Reenqueueing errored packet 106741 at time 3046
Reenqueueing errored packet 63671 at time 3047
Reenqueueing errored packet 127737 at time 3048
Reenqueueing errored packet 82561 at time 3048
Additional hops: 4754
Set signal latency stall time: 14
Reenqueueing errored packet 112423 at time 3053
Additional hops: 4758
Set signal latency stall time: 8
Additional hops: 4766
Set signal latency stall time: 16
Additional hops: 4772
Set signal latency stall time: 12
Additional hops: 4780
Set signal latency stall time: 16
Additional hops: 4783
Set signal latency stall time: 6
Reenqueueing errored packet 111786 at time 3063
Additional hops: 4791
Set signal latency stall time: 16
Reenqueueing errored packet 117435 at time 3066
Reenqueueing errored packet 102658 at time 3066
Reenqueueing errored packet 113971 at time 3068
Reenqueueing errored packet 115400 at time 3071
Additional hops: 4801
Set signal latency stall time: 20
Additional hops: 4806
Set signal latency stall time: 10
Reenqueueing errored packet 116316 at time 3074
Additional hops: 4818
Set signal latency stall time: 24
Reenqueueing errored packet 116609 at time 3080
Reenqueueing errored packet 108248 at time 3082
Reenqueueing errored packet 73615 at time 3092
Additional hops: 4825
Set signal latency stall time: 14
Reenqueueing errored packet 69709 at time 3103
Additional hops: 4831
Set signal latency stall time: 12
Additional hops: 4837
Set signal latency stall time: 12
Additional hops: 4840
Set signal latency stall time: 6
Additional hops: 4850
Set signal latency stall time: 20
Reenqueueing errored packet 95720 at time 3113
Reenqueueing errored packet 95578 at time 3116
Reenqueueing errored packet 94929 at time 3117
Additional hops: 4859
Set signal latency stall time: 18
Reenqueueing errored packet 101875 at time 3118
Additional hops: 4867
Set signal latency stall time: 16
Additional hops: 4874
Set signal latency stall time: 14
Reenqueueing errored packet 112857 at time 3128
Additional hops: 4881
Set signal latency stall time: 14
Additional hops: 4888
Set signal latency stall time: 14
Additional hops: 4899
Set signal latency stall time: 22
Reenqueueing errored packet 121129 at time 3136
Reenqueueing errored packet 116543 at time 3138
Additional hops: 4906
Set signal latency stall time: 14
Additional hops: 4912
Set signal latency stall time: 12
Additional hops: 4918
Set signal latency stall time: 12
Reenqueueing errored packet 122416 at time 3141
Additional hops: 4923
Set signal latency stall time: 10
Reenqueueing errored packet 119149 at time 3143
Reenqueueing errored packet 77053 at time 3146
Additional hops: 4931
Set signal latency stall time: 16
Additional hops: 4938
Set signal latency stall time: 14
Reenqueueing errored packet 118311 at time 3152
Reenqueueing errored packet 81788 at time 3152
Additional hops: 4945
Set signal latency stall time: 14
Reenqueueing errored packet 91954 at time 3153
Reenqueueing errored packet 95647 at time 3153
Additional hops: 4952
Set signal latency stall time: 14
Reenqueueing errored packet 67464 at time 3156
Additional hops: 4957
Set signal latency stall time: 10
Additional hops: 4964
Set signal latency stall time: 14
Additional hops: 4974
Set signal latency stall time: 20
Additional hops: 4980
Set signal latency stall time: 12
Reenqueueing errored packet 84777 at time 3164
Reenqueueing errored packet 82530 at time 3165
Additional hops: 4986
Set signal latency stall time: 12
Reenqueueing errored packet 116322 at time 3167
Reenqueueing errored packet 116713 at time 3168
Reenqueueing errored packet 97260 at time 3170
Additional hops: 4991
Set signal latency stall time: 10
Reenqueueing errored packet 119836 at time 3175
Additional hops: 5000
Set signal latency stall time: 18
Additional hops: 5008
Set signal latency stall time: 16
Reenqueueing errored packet 99446 at time 3176
Reenqueueing errored packet 127892 at time 3178
Additional hops: 5017
Set signal latency stall time: 18
Reenqueueing errored packet 145249 at time 3182
Reenqueueing errored packet 115250 at time 3182
Additional hops: 5025
Set signal latency stall time: 16
Additional hops: 5031
Set signal latency stall time: 12
Additional hops: 5034
Set signal latency stall time: 6
Additional hops: 5040
Set signal latency stall time: 12
Reenqueueing errored packet 79828 at time 3192
Reenqueueing errored packet 147886 at time 3194
Reenqueueing errored packet 80057 at time 3194
Additional hops: 5045
Set signal latency stall time: 10
Reenqueueing errored packet 123794 at time 3199
Additional hops: 5051
Set signal latency stall time: 12
Reenqueueing errored packet 100615 at time 3200
Additional hops: 5056
Set signal latency stall time: 10
Reenqueueing errored packet 100657 at time 3202
Reenqueueing errored packet 83922 at time 3204
Reenqueueing errored packet 124152 at time 3208
Reenqueueing errored packet 96092 at time 3211
Reenqueueing errored packet 94219 at time 3212
Additional hops: 5064
Set signal latency stall time: 16
Additional hops: 5073
Set signal latency stall time: 18
Additional hops: 5081
Set signal latency stall time: 16
Additional hops: 5089
Set signal latency stall time: 16
Additional hops: 5095
Set signal latency stall time: 12
Additional hops: 5100
Set signal latency stall time: 10
Additional hops: 5106
Set signal latency stall time: 12
Additional hops: 5111
Set signal latency stall time: 10
Reenqueueing errored packet 83895 at time 3229
Additional hops: 5117
Set signal latency stall time: 12
Additional hops: 5124
Set signal latency stall time: 14
Reenqueueing errored packet 116817 at time 3235
Reenqueueing errored packet 101898 at time 3236
Reenqueueing errored packet 84918 at time 3236
Reenqueueing errored packet 86844 at time 3237
Reenqueueing errored packet 89432 at time 3238
Additional hops: 5127
Set signal latency stall time: 6
Reenqueueing errored packet 88834 at time 3240
Reenqueueing errored packet 118321 at time 3240
Additional hops: 5132
Set signal latency stall time: 10
Additional hops: 5139
Set signal latency stall time: 14
Reenqueueing errored packet 154438 at time 3246
Reenqueueing errored packet 151044 at time 3246
Additional hops: 5147
Set signal latency stall time: 16
Reenqueueing errored packet 82392 at time 3248
Reenqueueing errored packet 138164 at time 3251
Additional hops: 5151
Set signal latency stall time: 8
Additional hops: 5161
Set signal latency stall time: 20
Additional hops: 5172
Set signal latency stall time: 22
Reenqueueing errored packet 114856 at time 3260
Additional hops: 5178
Set signal latency stall time: 12
Reenqueueing errored packet 83679 at time 3263
Reenqueueing errored packet 120246 at time 3265
Additional hops: 5186
Set signal latency stall time: 16
Additional hops: 5188
Set signal latency stall time: 4
Additional hops: 5202
Set signal latency stall time: 28
Additional hops: 5206
[...]
Reenqueueing errored packet 334699 at time 9018
Additional hops: 14488
Set signal latency stall time: 20
Reenqueueing errored packet 336524 at time 9022
Additional hops: 14492
Set signal latency stall time: 8
Reenqueueing errored packet 195493 at time 9031
Additional hops: 14497
Set signal latency stall time: 10
Reenqueueing errored packet 223797 at time 9033
Reenqueueing errored packet 333091 at time 9037
Additional hops: 14503
Set signal latency stall time: 12
Reenqueueing errored packet 352085 at time 9042
Additional hops: 14506
Set signal latency stall time: 6
Additional hops: 14514
Set signal latency stall time: 16
Additional hops: 14524
Set signal latency stall time: 20
Reenqueueing errored packet 277924 at time 9052
Reenqueueing errored packet 336237 at time 9054
Additional hops: 14532
Set signal latency stall time: 16
Additional hops: 14543
Set signal latency stall time: 22
Reenqueueing errored packet 345851 at time 9071
Reenqueueing errored packet 213019 at time 9072
Reenqueueing errored packet 264540 at time 9087
Additional hops: 14553
Set signal latency stall time: 20
Additional hops: 14559
Set signal latency stall time: 12
Additional hops: 14566
Set signal latency stall time: 14
Additional hops: 14573
Set signal latency stall time: 14
Additional hops: 14582
Set signal latency stall time: 18
Additional hops: 14584
Set signal latency stall time: 4
Reenqueueing errored packet 352693 at time 9108
Reenqueueing errored packet 334770 at time 9108
Additional hops: 14588
Set signal latency stall time: 8
Additional hops: 14594
Set signal latency stall time: 12
Reenqueueing errored packet 335230 at time 9114
Reenqueueing errored packet 188431 at time 9115
Reenqueueing errored packet 308499 at time 9117
Reenqueueing errored packet 273826 at time 9121
Additional hops: 14597
Set signal latency stall time: 6
Additional hops: 14601
Set signal latency stall time: 8
Reenqueueing errored packet 338956 at time 9133
Additional hops: 14609
Set signal latency stall time: 16
Additional hops: 14617
Set signal latency stall time: 16
Additional hops: 14623
Set signal latency stall time: 12
Additional hops: 14633
Set signal latency stall time: 20
Additional hops: 14643
Set signal latency stall time: 20
Reenqueueing errored packet 354721 at time 9151
Additional hops: 14656
Set signal latency stall time: 26
Additional hops: 14667
Set signal latency stall time: 22
Additional hops: 14671
Set signal latency stall time: 8
Additional hops: 14677
Set signal latency stall time: 12
Reenqueueing errored packet 235109 at time 9161
Additional hops: 14679
Set signal latency stall time: 4
Reenqueueing errored packet 318600 at time 9167
Reenqueueing errored packet 190640 at time 9167
Additional hops: 14683
Set signal latency stall time: 8
Reenqueueing errored packet 357359 at time 9169
Additional hops: 14687
Set signal latency stall time: 8
Reenqueueing errored packet 210672 at time 9180
Reenqueueing errored packet 340225 at time 9182
Additional hops: 14690
Set signal latency stall time: 6
Additional hops: 14695
Set signal latency stall time: 10
Reenqueueing errored packet 355988 at time 9190
Reenqueueing errored packet 343876 at time 9194
Additional hops: 14702
Set signal latency stall time: 14
Additional hops: 14711
Set signal latency stall time: 18
Additional hops: 14720
Set signal latency stall time: 18
Additional hops: 14726
Set signal latency stall time: 12
Reenqueueing errored packet 309166 at time 9213
Additional hops: 14728
Set signal latency stall time: 4
Additional hops: 14732
Set signal latency stall time: 8
Reenqueueing errored packet 199873 at time 9224
Reenqueueing errored packet 328361 at time 9224
Additional hops: 14737
Set signal latency stall time: 10
Additional hops: 14742
Set signal latency stall time: 10
Reenqueueing errored packet 354084 at time 9229
Additional hops: 14748
Set signal latency stall time: 12
Additional hops: 14761
Set signal latency stall time: 26
Reenqueueing errored packet 323301 at time 9235
Reenqueueing errored packet 312827 at time 9242
Additional hops: 14766
Set signal latency stall time: 10
Additional hops: 14774
Set signal latency stall time: 16
Additional hops: 14782
Set signal latency stall time: 16
Reenqueueing errored packet 335799 at time 9253
Additional hops: 14791
Set signal latency stall time: 18
Additional hops: 14801
Set signal latency stall time: 20
Additional hops: 14808
Set signal latency stall time: 14
Additional hops: 14817
Set signal latency stall time: 18
Reenqueueing errored packet 328703 at time 9276
Additional hops: 14821
Set signal latency stall time: 8
Reenqueueing errored packet 275461 at time 9277
Reenqueueing errored packet 199483 at time 9278
Additional hops: 14825
Set signal latency stall time: 8
Additional hops: 14835
Set signal latency stall time: 20
Additional hops: 14847
Set signal latency stall time: 24
Reenqueueing errored packet 351713 at time 9285
Reenqueueing errored packet 331040 at time 9287
Additional hops: 14856
Set signal latency stall time: 18
Additional hops: 14864
Set signal latency stall time: 16
Additional hops: 14872
Set signal latency stall time: 16
Reenqueueing errored packet 319922 at time 9294
Additional hops: 14882
Set signal latency stall time: 20
Additional hops: 14889
Set signal latency stall time: 14
Reenqueueing errored packet 211792 at time 9306
Reenqueueing errored packet 295840 at time 9308
Additional hops: 14893
Set signal latency stall time: 8
Reenqueueing errored packet 332730 at time 9316
Additional hops: 14898
Set signal latency stall time: 10
Reenqueueing errored packet 194066 at time 9319
Additional hops: 14905
Set signal latency stall time: 14
Reenqueueing errored packet 348479 at time 9323
Reenqueueing errored packet 357744 at time 9327
Reenqueueing errored packet 325233 at time 9334
Additional hops: 14915
Set signal latency stall time: 20
Additional hops: 14924
Set signal latency stall time: 18
Additional hops: 14933
Set signal latency stall time: 18
Additional hops: 14935
Set signal latency stall time: 4
Additional hops: 14941
Set signal latency stall time: 12
Reenqueueing errored packet 334529 at time 9353
Additional hops: 14947
Set signal latency stall time: 12
Additional hops: 14955
Set signal latency stall time: 16
Additional hops: 14961
Set signal latency stall time: 12
Additional hops: 14966
Set signal latency stall time: 10
Reenqueueing errored packet 297894 at time 9364
Reenqueueing errored packet 340261 at time 9365
Reenqueueing errored packet 200269 at time 9367
Reenqueueing errored packet 335170 at time 9368
Additional hops: 14972
Set signal latency stall time: 12
Additional hops: 14976
Set signal latency stall time: 8
Reenqueueing errored packet 354058 at time 9371
Additional hops: 14979
Set signal latency stall time: 6
Additional hops: 14984
Set signal latency stall time: 10
Additional hops: 14989
Set signal latency stall time: 10
Reenqueueing errored packet 308066 at time 9374
Additional hops: 14998
Set signal latency stall time: 18
Reenqueueing errored packet 310729 at time 9378
Reenqueueing errored packet 355058 at time 9379
Additional hops: 15002
Set signal latency stall time: 8
Additional hops: 15011
Set signal latency stall time: 18
Reenqueueing errored packet 211776 at time 9383
Reenqueueing errored packet 342878 at time 9384
Additional hops: 15025
Set signal latency stall time: 28
Reenqueueing errored packet 345195 at time 9391
Additional hops: 15034
Set signal latency stall time: 18
Reenqueueing errored packet 343634 at time 9393
Additional hops: 15036
Set signal latency stall time: 4
Reenqueueing errored packet 371948 at time 9399
Reenqueueing errored packet 329580 at time 9401
Additional hops: 15044
Set signal latency stall time: 16
Reenqueueing errored packet 332770 at time 9410
Additional hops: 15053
Set signal latency stall time: 18
Additional hops: 15061
Set signal latency stall time: 16
Additional hops: 15066
Set signal latency stall time: 10
Additional hops: 15075
Set signal latency stall time: 18
Additional hops: 15081
Set signal latency stall time: 12
Additional hops: 15084
Set signal latency stall time: 6
Reenqueueing errored packet 363131 at time 9434
Reenqueueing errored packet 350070 at time 9435
Reenqueueing errored packet 348595 at time 9437
Additional hops: 15094
Set signal latency stall time: 20
Additional hops: 15098
Set signal latency stall time: 8
Additional hops: 15103
Set signal latency stall time: 10
Additional hops: 15112
Set signal latency stall time: 18
Additional hops: 15117
Set signal latency stall time: 10
Reenqueueing errored packet 235010 at time 9454
Additional hops: 15127
Set signal latency stall time: 20
Additional hops: 15135
Set signal latency stall time: 16
Reenqueueing errored packet 333786 at time 9458
Reenqueueing errored packet 328560 at time 9459
Reenqueueing errored packet 203689 at time 9461
Reenqueueing errored packet 336145 at time 9469
Additional hops: 15144
Set signal latency stall time: 18
Reenqueueing errored packet 341849 at time 9475
Additional hops: 15147
Set signal latency stall time: 6
Additional hops: 15152
Set signal latency stall time: 10
Additional hops: 15161
Set signal latency stall time: 18
Reenqueueing errored packet 239420 at time 9490
Reenqueueing errored packet 313006 at time 9492
Additional hops: 15169
Set signal latency stall time: 16
Additional hops: 15176
Set signal latency stall time: 14
Additional hops: 15179
Set signal latency stall time: 6
Additional hops: 15186
Set signal latency stall time: 14
Reenqueueing errored packet 345907 at time 9510
Additional hops: 15190
Set signal latency stall time: 8
Reenqueueing errored packet 266214 at time 9511
Additional hops: 15193
Set signal latency stall time: 6
Reenqueueing errored packet 343850 at time 9516
Reenqueueing errored packet 347302 at time 9519
Reenqueueing errored packet 358417 at time 9519
Additional hops: 15202
Set signal latency stall time: 18
Additional hops: 15208
Set signal latency stall time: 12
Additional hops: 15210
Set signal latency stall time: 4
Reenqueueing errored packet 357623 at time 9535
Reenqueueing errored packet 333195 at time 9539
Additional hops: 15217
Set signal latency stall time: 14
Additional hops: 15226
Set signal latency stall time: 18
Additional hops: 15231
Set signal latency stall time: 10
Additional hops: 15234
Set signal latency stall time: 6
Reenqueueing errored packet 360428 at time 9552
Reenqueueing errored packet 312542 at time 9554
Additional hops: 15239
Set signal latency stall time: 10
Reenqueueing errored packet 304498 at time 9555
Additional hops: 15245
Set signal latency stall time: 12
Additional hops: 15252
Set signal latency stall time: 14
Reenqueueing errored packet 351503 at time 9569
Reenqueueing errored packet 241750 at time 9573
Additional hops: 15256
Set signal latency stall time: 8
Additional hops: 15263
Set signal latency stall time: 14
Additional hops: 15267
Set signal latency stall time: 8
Reenqueueing errored packet 328854 at time 9584
Additional hops: 15275
Set signal latency stall time: 16
Additional hops: 15281
Set signal latency stall time: 12
Reenqueueing errored packet 371666 at time 9591
Reenqueueing errored packet 349542 at time 9593
Reenqueueing errored packet 261716 at time 9603
Additional hops: 15284
Set signal latency stall time: 6
Reenqueueing errored packet 378374 at time 9615
Additional hops: 15289
Set signal latency stall time: 10
Additional hops: 15290
Set signal latency stall time: 2
Additional hops: 15297
Set signal latency stall time: 14
Additional hops: 15308
Set signal latency stall time: 22
Reenqueueing errored packet 368016 at time 9632
Additional hops: 15316
Set signal latency stall time: 16
Reenqueueing errored packet 303666 at time 9643
Additional hops: 15323
Set signal latency stall time: 14
Additional hops: 15332
Set signal latency stall time: 18
Additional hops: 15335
Set signal latency stall time: 6
Reenqueueing errored packet 283652 at time 9656
Reenqueueing errored packet 358633 at time 9659
Reenqueueing errored packet 380115 at time 9662
Additional hops: 15345
Set signal latency stall time: 20
Reenqueueing errored packet 295478 at time 9669
Additional hops: 15350
Set signal latency stall time: 10
Additional hops: 15359
Set signal latency stall time: 18
Additional hops: 15367
Set signal latency stall time: 16
Reenqueueing errored packet 290870 at time 9683
Reenqueueing errored packet 334713 at time 9692
Additional hops: 15372
Set signal latency stall time: 10
Reenqueueing errored packet 304982 at time 9698
Additional hops: 15375
Set signal latency stall time: 6
Reenqueueing errored packet 308926 at time 9705
Reenqueueing errored packet 368093 at time 9706
Additional hops: 15377
Set signal latency stall time: 4
Additional hops: 15381
Set signal latency stall time: 8
Additional hops: 15386
Set signal latency stall time: 10
Additional hops: 15395
Set signal latency stall time: 18
Additional hops: 15401
Set signal latency stall time: 12
Reenqueueing errored packet 365444 at time 9722
Additional hops: 15405
Set signal latency stall time: 8
Additional hops: 15410
Set signal latency stall time: 10
Reenqueueing errored packet 360253 at time 9735
Additional hops: 15417
Set signal latency stall time: 14
Additional hops: 15426
Set signal latency stall time: 18
Additional hops: 15438
Set signal latency stall time: 24
Reenqueueing errored packet 368935 at time 9744
Additional hops: 15449
Set signal latency stall time: 22
Reenqueueing errored packet 293955 at time 9753
Additional hops: 15456
Set signal latency stall time: 14
Additional hops: 15469
Set signal latency stall time: 26
Additional hops: 15474
Set signal latency stall time: 10
Additional hops: 15480
Set signal latency stall time: 12
Reenqueueing errored packet 311671 at time 9768
Additional hops: 15483
Set signal latency stall time: 6
Reenqueueing errored packet 275050 at time 9776
Additional hops: 15489
Set signal latency stall time: 12
Reenqueueing errored packet 356843 at time 9778
Reenqueueing errored packet 383424 at time 9779
Additional hops: 15493
Set signal latency stall time: 8
Additional hops: 15502
Set signal latency stall time: 18
Additional hops: 15507
Set signal latency stall time: 10
Additional hops: 15517
Set signal latency stall time: 20
Additional hops: 15524
Set signal latency stall time: 14
Reenqueueing errored packet 309087 at time 9800
Additional hops: 15528
Set signal latency stall time: 8
Reenqueueing errored packet 256188 at time 9813
Reenqueueing errored packet 218818 at time 9813
Additional hops: 15535
Set signal latency stall time: 14
Additional hops: 15543
Set signal latency stall time: 16
Additional hops: 15549
Set signal latency stall time: 12
Additional hops: 15554
Set signal latency stall time: 10
Additional hops: 15557
Set signal latency stall time: 6
Additional hops: 15568
Set signal latency stall time: 22
Additional hops: 15574
Set signal latency stall time: 12
Reenqueueing errored packet 374346 at time 9828
Additional hops: 15581
Set signal latency stall time: 14
Reenqueueing errored packet 313485 at time 9829
Reenqueueing errored packet 344470 at time 9829
Reenqueueing errored packet 361910 at time 9832
Additional hops: 15586
Set signal latency stall time: 10
Additional hops: 15597
Set signal latency stall time: 22
Reenqueueing errored packet 341951 at time 9840
Additional hops: 15607
Set signal latency stall time: 20
Additional hops: 15614
Set signal latency stall time: 14
Additional hops: 15622
Set signal latency stall time: 16
Reenqueueing errored packet 345370 at time 9850
Additional hops: 15628
Set signal latency stall time: 12
Reenqueueing errored packet 374119 at time 9858
Reenqueueing errored packet 294085 at time 9859
Additional hops: 15638
Set signal latency stall time: 20
Reenqueueing errored packet 333741 at time 9866
Reenqueueing errored packet 343717 at time 9867
Additional hops: 15642
Set signal latency stall time: 8
Additional hops: 15649
Set signal latency stall time: 14
Reenqueueing errored packet 280790 at time 9878
Additional hops: 15656
Set signal latency stall time: 14
Reenqueueing errored packet 357960 at time 9882
Additional hops: 15665
Set signal latency stall time: 18
Additional hops: 15673
Set signal latency stall time: 16
Additional hops: 15680
Set signal latency stall time: 14
Additional hops: 15692
Set signal latency stall time: 24
Additional hops: 15701
Set signal latency stall time: 18
Reenqueueing errored packet 310862 at time 9889
Reenqueueing errored packet 310314 at time 9896
Additional hops: 15709
Set signal latency stall time: 16
Reenqueueing errored packet 315368 at time 9900
Reenqueueing errored packet 313411 at time 9902
Additional hops: 15716
Set signal latency stall time: 14
Reenqueueing errored packet 316834 at time 9907
Additional hops: 15722
Set signal latency stall time: 12
Additional hops: 15730
Set signal latency stall time: 16
Reenqueueing errored packet 298364 at time 9912
Additional hops: 15733
Set signal latency stall time: 6
Reenqueueing errored packet 249181 at time 9916
Additional hops: 15739
Set signal latency stall time: 12
Reenqueueing errored packet 358961 at time 9917
Reenqueueing errored packet 363833 at time 9922
Reenqueueing errored packet 361394 at time 9926
Additional hops: 15741
Set signal latency stall time: 4
Additional hops: 15745
Set signal latency stall time: 8
Reenqueueing errored packet 257183 at time 9929
Reenqueueing errored packet 362712 at time 9931
Additional hops: 15748
Set signal latency stall time: 6
Additional hops: 15754
Set signal latency stall time: 12
Reenqueueing errored packet 376255 at time 9936
Additional hops: 15760
Set signal latency stall time: 12
Additional hops: 15765
Set signal latency stall time: 10
Additional hops: 15773
Set signal latency stall time: 16
Additional hops: 15784
Set signal latency stall time: 22
Reenqueueing errored packet 360549 at time 9946
Reenqueueing errored packet 356626 at time 9949
Additional hops: 15788
Set signal latency stall time: 8
Reenqueueing errored packet 363619 at time 9951
Additional hops: 15797
Set signal latency stall time: 18
Additional hops: 15805
Set signal latency stall time: 16
Additional hops: 15810
Set signal latency stall time: 10
Reenqueueing errored packet 378921 at time 9958
Reenqueueing errored packet 297413 at time 9959
Reenqueueing errored packet 361635 at time 9968
Additional hops: 15816
Set signal latency stall time: 12
Additional hops: 15821
Set signal latency stall time: 10
Additional hops: 15826
Set signal latency stall time: 10
Additional hops: 15832
Set signal latency stall time: 12
Reenqueueing errored packet 378227 at time 9982
Additional hops: 15840
Set signal latency stall time: 16
Reenqueueing errored packet 365361 at time 9984
Reenqueueing errored packet 366856 at time 9988
Reenqueueing errored packet 378096 at time 9991
Additional hops: 15845
Set signal latency stall time: 10
Additional hops: 15853
Set signal latency stall time: 16
Additional hops: 15861
Set signal latency stall time: 16
Additional hops: 15866
Set signal latency stall time: 10
Class 0:
Packet latency average = 1276.44
	minimum = 5
	maximum = 7825
Network latency average = 1202.96
	minimum = 5
	maximum = 5825
Slowest packet = 2028
Flit latency average = 1202.96
	minimum = 5
	maximum = 5825
Slowest flit = 195176
Fragmentation average = 0
	minimum = 0
	maximum = 0
Injected packet rate average = 0.614694
	minimum = 0.4645 (at node 14)
	maximum = 0.7637 (at node 43)
Accepted packet rate average = 0.50787
	minimum = 0.488 (at node 21)
	maximum = 0.5223 (at node 15)
Injected flit rate average = 0.614694
	minimum = 0.4645 (at node 14)
	maximum = 0.7637 (at node 43)
Accepted flit rate average= 0.50787
	minimum = 0.488 (at node 21)
	maximum = 0.5223 (at node 15)
Injected packet length average = 1
Accepted packet length average = 1
Total in-flight flits = 68799 (0 measured)
latency change    = 1
throughput change = 1
Average latency for class 0 exceeded 500 cycles. Aborting simulation.
Too many sample periods needed to converge
Simulation unstable, ending ...
Total run time 60.9975
