BEGIN Configuration File: examples/ecc_mesh88_config_1_0.800_link_4
// $Id$

// Copyright (c) 2007-2015, Trustees of The Leland Stanford Junior University
// All rights reserved.
//
// Redistribution and use in source and binary forms, with or without
// modification, are permitted provided that the following conditions are met:
//
// Redistributions of source code must retain the above copyright notice, this
// list of conditions and the following disclaimer.
// Redistributions in binary form must reproduce the above copyright notice,
// this list of conditions and the following disclaimer in the documentation
// and/or other materials provided with the distribution.
//
// THIS SOFTWARE IS PROVIDED BY THE COPYRIGHT HOLDERS AND CONTRIBUTORS "AS IS"
// AND ANY EXPRESS OR IMPLIED WARRANTIES, INCLUDING, BUT NOT LIMITED TO, THE
// IMPLIED WARRANTIES OF MERCHANTABILITY AND FITNESS FOR A PARTICULAR PURPOSE
// ARE DISCLAIMED. IN NO EVENT SHALL THE COPYRIGHT OWNER OR CONTRIBUTORS BE
// LIABLE FOR ANY DIRECT, INDIRECT, INCIDENTAL, SPECIAL, EXEMPLARY, OR
// CONSEQUENTIAL DAMAGES (INCLUDING, BUT NOT LIMITED TO, PROCUREMENT OF
// SUBSTITUTE GOODS OR SERVICES; LOSS OF USE, DATA, OR PROFITS; OR BUSINESS
// INTERRUPTION) HOWEVER CAUSED AND ON ANY THEORY OF LIABILITY, WHETHER IN
// CONTRACT, STRICT LIABILITY, OR TORT (INCLUDING NEGLIGENCE OR OTHERWISE)
// ARISING IN ANY WAY OUT OF THE USE OF THIS SOFTWARE, EVEN IF ADVISED OF THE
// POSSIBILITY OF SUCH DAMAGE.

// Dragonfly
//




vc_buf_size = 256;


wait_for_tail_credit = 0;

//
// Router architecture
//
vc_allocator = separable_input_first; 
sw_allocator = separable_input_first;
alloc_iters  = 1;

credit_delay   = 2;
routing_delay  = 0;
vc_alloc_delay = 1;
sw_alloc_delay = 1;
st_final_delay = 1;

input_speedup     = 1;
output_speedup    = 1;
internal_speedup  = 2.0;


warmup_periods = 3;
sim_count          = 1;

sample_period  = 10000;  


routing_function = dor;
num_vcs     = 2;

priority = none;
traffic       = uniform; 

injection_rate = 0.8;
packet_size = 1;
injection_rate_uses_flits = 1;

topology = mesh;

k  = 8;
n  = 2;

fer = 4;
ecc = link;

watch_out=-;
//watch_file = watch.txt;

ecc = link;

stats_out = examples/ecc_mesh88_config_1_0.800_link_4.m;

END Configuration File: examples/ecc_mesh88_config_1_0.800_link_4
3
2
Received nack credit for flit 785
Requeued flit 785
Received nack credit for flit 764
Requeued flit 764
5
Received nack credit for flit 937
Requeued flit 937
1
Received nack credit for flit 3125
Requeued flit 3125
1
Received nack credit for flit 4829
Requeued flit 4829
3
Received nack credit for flit 5528
Requeued flit 5528
1
Received nack credit for flit 10039
Requeued flit 10039
2
Received nack credit for flit 9486
Requeued flit 9486
1
Received nack credit for flit 11238
Requeued flit 11238
1
1
Received nack credit for flit 12858
Requeued flit 12858
Received nack credit for flit 12000
Requeued flit 12000
1
Received nack credit for flit 14129
Requeued flit 14129
4
Received nack credit for flit 12446
Requeued flit 12446
2
Received nack credit for flit 13159
Requeued flit 13159
1
Received nack credit for flit 23689
Requeued flit 23689
3
Received nack credit for flit 18921
Requeued flit 18921
1
Received nack credit for flit 23049
Requeued flit 23049
1
Received nack credit for flit 26355
Requeued flit 26355
5
Received nack credit for flit 24962
Requeued flit 24962
11
Received nack credit for flit 15182
Requeued flit 15182
7
2
Received nack credit for flit 21332
Requeued flit 21332
Received nack credit for flit 36143
Requeued flit 36143
1
Received nack credit for flit 45482
Requeued flit 45482
1
Received nack credit for flit 41532
Requeued flit 41532
1
Received nack credit for flit 54865
Requeued flit 54865
1
Received nack credit for flit 45361
Requeued flit 45361
6
Received nack credit for flit 32776
Requeued flit 32776
2
Received nack credit for flit 64147
Requeued flit 64147
2
Received nack credit for flit 42492
Requeued flit 42492
4
Received nack credit for flit 65514
Requeued flit 65514
1
Received nack credit for flit 52719
Requeued flit 52719
5
Received nack credit for flit 37305
Requeued flit 37305
2
Received nack credit for flit 48034
Requeued flit 48034
3
Received nack credit for flit 43823
Requeued flit 43823
4
Received nack credit for flit 59885
Requeued flit 59885
1
Received nack credit for flit 81279
Requeued flit 81279
1
Received nack credit for flit 84813
Requeued flit 84813
1
Received nack credit for flit 70152
Requeued flit 70152
6
Received nack credit for flit 42205
Requeued flit 42205
1
Received nack credit for flit 95196
Requeued flit 95196
1
Received nack credit for flit 80764
Requeued flit 80764
1
Received nack credit for flit 103250
Requeued flit 103250
6
Received nack credit for flit 60350
Requeued flit 60350
3
Received nack credit for flit 69003
Requeued flit 69003
2
Received nack credit for flit 103127
Requeued flit 103127
4
Received nack credit for flit 69852
Requeued flit 69852
1
Received nack credit for flit 82886
Requeued flit 82886
2
Received nack credit for flit 88092
Requeued flit 88092
2
Received nack credit for flit 95969
Requeued flit 95969
1
Received nack credit for flit 119724
Requeued flit 119724
3
Received nack credit for flit 69580
Requeued flit 69580
3
Received nack credit for flit 63904
Requeued flit 63904
3
Received nack credit for flit 99264
Requeued flit 99264
8
Received nack credit for flit 42908
Requeued flit 42908
1
1
Received nack credit for flit 127746
Requeued flit 127746
Received nack credit for flit 127097
Requeued flit 127097
1
Received nack credit for flit 108339
Requeued flit 108339
1
Received nack credit for flit 114218
Requeued flit 114218
3
Received nack credit for flit 86849
Requeued flit 86849
3
Received nack credit for flit 95542
Requeued flit 95542
4
Received nack credit for flit 99093
Requeued flit 99093
2
Received nack credit for flit 126376
Requeued flit 126376
1
Received nack credit for flit 158109
Requeued flit 158109
1
Received nack credit for flit 138431
Requeued flit 138431
4
Received nack credit for flit 103769
Requeued flit 103769
5
Received nack credit for flit 123411
Requeued flit 123411
3
Received nack credit for flit 158940
Requeued flit 158940
1
Received nack credit for flit 143646
Requeued flit 143646
4
Received nack credit for flit 137013
Requeued flit 137013
1
Received nack credit for flit 163224
Requeued flit 163224
2
Received nack credit for flit 132952
Requeued flit 132952
2
Received nack credit for flit 167237
Requeued flit 167237
1
Received nack credit for flit 173804
Requeued flit 173804
3
1
Received nack credit for flit 134769
Requeued flit 134769
9
Received nack credit for flit 161291
Requeued flit 161291
Received nack credit for flit 86003
Requeued flit 86003
4
Received nack credit for flit 128978
Requeued flit 128978
1
1
Received nack credit for flit 173154
Requeued flit 173154
Received nack credit for flit 164678
Requeued flit 164678
3
Received nack credit for flit 97710
Requeued flit 97710
1
Received nack credit for flit 175774
Requeued flit 175774
1
Received nack credit for flit 180010
Requeued flit 180010
1
Received nack credit for flit 171520
Requeued flit 171520
6
Received nack credit for flit 97826
Requeued flit 97826
2
Received nack credit for flit 139771
Requeued flit 139771
1
Received nack credit for flit 181679
Requeued flit 181679
11
3
Received nack credit for flit 109824
Requeued flit 109824
Received nack credit for flit 172881
Requeued flit 172881
1
Received nack credit for flit 187907
Requeued flit 187907
2
Received nack credit for flit 181568
Requeued flit 181568
7
Received nack credit for flit 103430
Requeued flit 103430
1
Received nack credit for flit 206184
Requeued flit 206184
6
Received nack credit for flit 134495
Requeued flit 134495
5
Received nack credit for flit 191238
Requeued flit 191238
3
Received nack credit for flit 209184
Requeued flit 209184
8
Received nack credit for flit 163070
Requeued flit 163070
1
Received nack credit for flit 213598
Requeued flit 213598
3
Received nack credit for flit 191599
Requeued flit 191599
1
Received nack credit for flit 198579
Requeued flit 198579
1
Received nack credit for flit 159545
Requeued flit 159545
4
Received nack credit for flit 213025
Requeued flit 213025
2
Received nack credit for flit 158991
Requeued flit 158991
4
Received nack credit for flit 206939
Requeued flit 206939
1
Received nack credit for flit 206407
Requeued flit 206407
1
Received nack credit for flit 172030
Requeued flit 172030
3
Received nack credit for flit 215431
Requeued flit 215431
1
Received nack credit for flit 224863
Requeued flit 224863
2
9
3
Received nack credit for flit 216973
Requeued flit 216973
Received nack credit for flit 178392
Requeued flit 178392
Received nack credit for flit 162540
Requeued flit 162540
4
Received nack credit for flit 227338
Requeued flit 227338
1
Received nack credit for flit 189835
Requeued flit 189835
4
Received nack credit for flit 123482
Requeued flit 123482
6
Received nack credit for flit 121797
Requeued flit 121797
3
Received nack credit for flit 239573
Requeued flit 239573
1
Received nack credit for flit 202659
Requeued flit 202659
5
Received nack credit for flit 177498
Requeued flit 177498
1
Received nack credit for flit 228068
Requeued flit 228068
2
Received nack credit for flit 229920
Requeued flit 229920
4
Received nack credit for flit 251284
Requeued flit 251284
1
Received nack credit for flit 210120
Requeued flit 210120
5
Received nack credit for flit 146081
Requeued flit 146081
5
Received nack credit for flit 238474
Requeued flit 238474
1
Received nack credit for flit 217838
Requeued flit 217838
1
3
Received nack credit for flit 249683
Requeued flit 249683
Received nack credit for flit 239278
Requeued flit 239278
7
Received nack credit for flit 173127
Requeued flit 173127
5
Received nack credit for flit 199289
Requeued flit 199289
1
Received nack credit for flit 212904
Requeued flit 212904
1
Received nack credit for flit 214523
Requeued flit 214523
4
Received nack credit for flit 201476
Requeued flit 201476
3
Received nack credit for flit 259904
Requeued flit 259904
9
Received nack credit for flit 141230
Requeued flit 141230
3
Received nack credit for flit 252418
Requeued flit 252418
1
Received nack credit for flit 250043
Requeued flit 250043
2
Received nack credit for flit 181226
Requeued flit 181226
9
Received nack credit for flit 191795
Requeued flit 191795
2
Received nack credit for flit 216145
Requeued flit 216145
7
Received nack credit for flit 137528
Requeued flit 137528
2
Received nack credit for flit 226919
Requeued flit 226919
1
Received nack credit for flit 261319
Requeued flit 261319
5
Received nack credit for flit 151530
Requeued flit 151530
5
Received nack credit for flit 142238
Requeued flit 142238
1
Received nack credit for flit 245716
Requeued flit 245716
8
Received nack credit for flit 210879
Requeued flit 210879
1
Received nack credit for flit 281138
Requeued flit 281138
1
Received nack credit for flit 300864
Requeued flit 300864
3
Received nack credit for flit 224661
Requeued flit 224661
8
Received nack credit for flit 277080
Requeued flit 277080
3
Received nack credit for flit 278101
Requeued flit 278101
1
Received nack credit for flit 287895
Requeued flit 287895
3
Received nack credit for flit 233750
Requeued flit 233750
6
Received nack credit for flit 226966
Requeued flit 226966
1
Received nack credit for flit 296483
Requeued flit 296483
5
Received nack credit for flit 291666
Requeued flit 291666
10
1
Received nack credit for flit 239219
Requeued flit 239219
6
Received nack credit for flit 164396
Requeued flit 164396
Received nack credit for flit 268389
Requeued flit 268389
2
Received nack credit for flit 310890
Requeued flit 310890
4
2
Received nack credit for flit 247232
Requeued flit 247232
Received nack credit for flit 294023
Requeued flit 294023
5
Received nack credit for flit 310013
Requeued flit 310013
3
Received nack credit for flit 242402
Requeued flit 242402
2
1
Received nack credit for flit 261808
Requeued flit 261808
Received nack credit for flit 295819
Requeued flit 295819
7
Received nack credit for flit 296911
Requeued flit 296911
2
Received nack credit for flit 300767
Requeued flit 300767
4
Received nack credit for flit 174080
Requeued flit 174080
1
Received nack credit for flit 317225
Requeued flit 317225
4
Received nack credit for flit 307779
Requeued flit 307779
3
Received nack credit for flit 307900
Requeued flit 307900
1
Received nack credit for flit 287220
Requeued flit 287220
2
Received nack credit for flit 309425
Requeued flit 309425
4
Received nack credit for flit 335534
Requeued flit 335534
6
Received nack credit for flit 176923
Requeued flit 176923
2
Received nack credit for flit 332650
Requeued flit 332650
1
Received nack credit for flit 316870
Requeued flit 316870
1
Received nack credit for flit 293995
Requeued flit 293995
2
Received nack credit for flit 352901
Requeued flit 352901
4
Received nack credit for flit 226666
Requeued flit 226666
2
Received nack credit for flit 345970
Requeued flit 345970
5
Received nack credit for flit 205784
Requeued flit 205784
1
Received nack credit for flit 361846
Requeued flit 361846
1
3
Received nack credit for flit 292584
Requeued flit 292584
Received nack credit for flit 333723
Requeued flit 333723
4
Received nack credit for flit 297997
Requeued flit 297997
1
Received nack credit for flit 336458
Requeued flit 336458
2
Received nack credit for flit 319213
Requeued flit 319213
1
Received nack credit for flit 312724
Requeued flit 312724
7
Received nack credit for flit 290778
Requeued flit 290778
3
3
Received nack credit for flit 355947
Requeued flit 355947
Received nack credit for flit 358970
Requeued flit 358970
4
Received nack credit for flit 194822
Requeued flit 194822
1
Received nack credit for flit 361641
Requeued flit 361641
6
Received nack credit for flit 191941
Requeued flit 191941
2
4
Received nack credit for flit 316261
Requeued flit 316261
Received nack credit for flit 248196
Requeued flit 248196
5
1
2
Received nack credit for flit 352668
Requeued flit 352668
Received nack credit for flit 353413
Requeued flit 353413
Received nack credit for flit 321082
Requeued flit 321082
7
Received nack credit for flit 347298
Requeued flit 347298
1
Received nack credit for flit 370845
Requeued flit 370845
5
Received nack credit for flit 295894
Requeued flit 295894
1
Received nack credit for flit 332717
Requeued flit 332717
1
Received nack credit for flit 375349
Requeued flit 375349
3
Received nack credit for flit 342449
Requeued flit 342449
Class 0:
Packet latency average = 1409.75
	minimum = 5
	maximum = 6297
Network latency average = 1288.38
	minimum = 5
	maximum = 6261
Slowest packet = 180101
Flit latency average = 1288.38
	minimum = 5
	maximum = 6261
Slowest flit = 184530
Fragmentation average = 0
	minimum = 0
	maximum = 0
Injected packet rate average = 0.614286
	minimum = 0.441 (at node 30)
	maximum = 0.8051 (at node 51)
Accepted packet rate average = 0.506181
	minimum = 0.4868 (at node 21)
	maximum = 0.5207 (at node 14)
Injected flit rate average = 0.614286
	minimum = 0.441 (at node 30)
	maximum = 0.8051 (at node 51)
Accepted flit rate average= 0.506181
	minimum = 0.4868 (at node 21)
	maximum = 0.5207 (at node 14)
Injected packet length average = 1
Accepted packet length average = 1
Total in-flight flits = 69214 (0 measured)
latency change    = 1
throughput change = 1
Average latency for class 0 exceeded 500 cycles. Aborting simulation.
Too many sample periods needed to converge
Simulation unstable, ending ...
Total run time 55.97
