BEGIN Configuration File: examples/ecc_mesh88_config_1_0.750_link_4
// $Id$

// Copyright (c) 2007-2015, Trustees of The Leland Stanford Junior University
// All rights reserved.
//
// Redistribution and use in source and binary forms, with or without
// modification, are permitted provided that the following conditions are met:
//
// Redistributions of source code must retain the above copyright notice, this
// list of conditions and the following disclaimer.
// Redistributions in binary form must reproduce the above copyright notice,
// this list of conditions and the following disclaimer in the documentation
// and/or other materials provided with the distribution.
//
// THIS SOFTWARE IS PROVIDED BY THE COPYRIGHT HOLDERS AND CONTRIBUTORS "AS IS"
// AND ANY EXPRESS OR IMPLIED WARRANTIES, INCLUDING, BUT NOT LIMITED TO, THE
// IMPLIED WARRANTIES OF MERCHANTABILITY AND FITNESS FOR A PARTICULAR PURPOSE
// ARE DISCLAIMED. IN NO EVENT SHALL THE COPYRIGHT OWNER OR CONTRIBUTORS BE
// LIABLE FOR ANY DIRECT, INDIRECT, INCIDENTAL, SPECIAL, EXEMPLARY, OR
// CONSEQUENTIAL DAMAGES (INCLUDING, BUT NOT LIMITED TO, PROCUREMENT OF
// SUBSTITUTE GOODS OR SERVICES; LOSS OF USE, DATA, OR PROFITS; OR BUSINESS
// INTERRUPTION) HOWEVER CAUSED AND ON ANY THEORY OF LIABILITY, WHETHER IN
// CONTRACT, STRICT LIABILITY, OR TORT (INCLUDING NEGLIGENCE OR OTHERWISE)
// ARISING IN ANY WAY OUT OF THE USE OF THIS SOFTWARE, EVEN IF ADVISED OF THE
// POSSIBILITY OF SUCH DAMAGE.

// Dragonfly
//




vc_buf_size = 256;


wait_for_tail_credit = 0;

//
// Router architecture
//
vc_allocator = separable_input_first; 
sw_allocator = separable_input_first;
alloc_iters  = 1;

credit_delay   = 2;
routing_delay  = 0;
vc_alloc_delay = 1;
sw_alloc_delay = 1;
st_final_delay = 1;

input_speedup     = 1;
output_speedup    = 1;
internal_speedup  = 2.0;


warmup_periods = 3;
sim_count          = 1;

sample_period  = 10000;  


routing_function = dor;
num_vcs     = 2;

priority = none;
traffic       = uniform; 

injection_rate = 0.75;
packet_size = 1;
injection_rate_uses_flits = 1;

topology = mesh;

k  = 8;
n  = 2;

fer = 4;
ecc = link;

watch_out=-;
//watch_file = watch.txt;

ecc = link;

stats_out = examples/ecc_mesh88_config_1_0.750_link_4.m;

END Configuration File: examples/ecc_mesh88_config_1_0.750_link_4
2
2
Received nack credit for flit 688
Requeued flit 688
Received nack credit for flit 910
Requeued flit 910
1
Received nack credit for flit 6269
Requeued flit 6269
1
Received nack credit for flit 7359
Requeued flit 7359
2
Received nack credit for flit 9161
Requeued flit 9161
1
Received nack credit for flit 8629
Requeued flit 8629
6
Received nack credit for flit 8356
Requeued flit 8356
1
Received nack credit for flit 11765
Requeued flit 11765
1
Received nack credit for flit 12461
Requeued flit 12461
5
Received nack credit for flit 13265
Requeued flit 13265
1
Received nack credit for flit 15498
Requeued flit 15498
3
Received nack credit for flit 9163
Requeued flit 9163
1
Received nack credit for flit 17102
Requeued flit 17102
2
Received nack credit for flit 19314
Requeued flit 19314
3
Received nack credit for flit 15548
Requeued flit 15548
6
Received nack credit for flit 13248
Requeued flit 13248
4
Received nack credit for flit 18362
Requeued flit 18362
1
Received nack credit for flit 26319
Requeued flit 26319
6
Received nack credit for flit 17650
Requeued flit 17650
1
Received nack credit for flit 32136
Requeued flit 32136
3
Received nack credit for flit 37806
Requeued flit 37806
1
1
Received nack credit for flit 42905
Requeued flit 42905
Received nack credit for flit 42972
Requeued flit 42972
2
Received nack credit for flit 28841
Requeued flit 28841
2
Received nack credit for flit 45079
Requeued flit 45079
2
2
Received nack credit for flit 46198
Requeued flit 46198
Received nack credit for flit 42084
Requeued flit 42084
1
Received nack credit for flit 55425
Requeued flit 55425
11
Received nack credit for flit 26706
Requeued flit 26706
1
Received nack credit for flit 43300
Requeued flit 43300
2
Received nack credit for flit 52596
Requeued flit 52596
1
Received nack credit for flit 61506
Requeued flit 61506
1
Received nack credit for flit 61234
Requeued flit 61234
5
7
Received nack credit for flit 41083
Requeued flit 41083
Received nack credit for flit 51015
Requeued flit 51015
5
Received nack credit for flit 41645
Requeued flit 41645
3
1
Received nack credit for flit 52785
Requeued flit 52785
Received nack credit for flit 75771
Requeued flit 75771
5
Received nack credit for flit 44626
Requeued flit 44626
1
Received nack credit for flit 75670
Requeued flit 75670
2
Received nack credit for flit 53612
Requeued flit 53612
1
Received nack credit for flit 72218
Requeued flit 72218
1
Received nack credit for flit 88973
Requeued flit 88973
1
Received nack credit for flit 76411
Requeued flit 76411
5
Received nack credit for flit 55293
Requeued flit 55293
1
Received nack credit for flit 98250
Requeued flit 98250
5
Received nack credit for flit 74697
Requeued flit 74697
2
Received nack credit for flit 89628
Requeued flit 89628
1
Received nack credit for flit 100734
Requeued flit 100734
2
Received nack credit for flit 102033
Requeued flit 102033
2
Received nack credit for flit 65550
Requeued flit 65550
2
Received nack credit for flit 93486
Requeued flit 93486
2
Received nack credit for flit 86782
Requeued flit 86782
2
1
Received nack credit for flit 69069
Requeued flit 69069
Received nack credit for flit 108624
Requeued flit 108624
2
Received nack credit for flit 106321
Requeued flit 106321
1
Received nack credit for flit 108323
Requeued flit 108323
1
Received nack credit for flit 114438
Requeued flit 114438
4
Received nack credit for flit 97571
Requeued flit 97571
2
2
Received nack credit for flit 121759
Requeued flit 121759
Received nack credit for flit 116812
Requeued flit 116812
1
Received nack credit for flit 117661
Requeued flit 117661
1
Received nack credit for flit 117504
Requeued flit 117504
1
Received nack credit for flit 135343
Requeued flit 135343
6
Received nack credit for flit 76384
Requeued flit 76384
1
Received nack credit for flit 142330
Requeued flit 142330
1
Received nack credit for flit 148745
Requeued flit 148745
3
Received nack credit for flit 96292
Requeued flit 96292
1
Received nack credit for flit 152224
Requeued flit 152224
8
Received nack credit for flit 82653
Requeued flit 82653
1
Received nack credit for flit 136568
Requeued flit 136568
2
Received nack credit for flit 133341
Requeued flit 133341
1
Received nack credit for flit 158554
Requeued flit 158554
3
Received nack credit for flit 123394
Requeued flit 123394
1
Received nack credit for flit 162281
Requeued flit 162281
5
Received nack credit for flit 84947
Requeued flit 84947
4
Received nack credit for flit 103118
Requeued flit 103118
1
Received nack credit for flit 146781
Requeued flit 146781
4
Received nack credit for flit 134635
Requeued flit 134635
1
3
1
Received nack credit for flit 119797
Requeued flit 119797
Received nack credit for flit 176339
Requeued flit 176339
Received nack credit for flit 176543
Requeued flit 176543
2
Received nack credit for flit 174593
Requeued flit 174593
4
Received nack credit for flit 105365
Requeued flit 105365
4
Received nack credit for flit 103284
Requeued flit 103284
1
1
Received nack credit for flit 160858
Requeued flit 160858
Received nack credit for flit 162342
Requeued flit 162342
2
Received nack credit for flit 153069
Requeued flit 153069
6
Received nack credit for flit 110646
Requeued flit 110646
1
Received nack credit for flit 183323
Requeued flit 183323
2
Received nack credit for flit 156517
Requeued flit 156517
4
3
Received nack credit for flit 135448
Requeued flit 135448
Received nack credit for flit 153756
Requeued flit 153756
1
Received nack credit for flit 171240
Requeued flit 171240
4
Received nack credit for flit 156457
Requeued flit 156457
1
Received nack credit for flit 195874
Requeued flit 195874
3
Received nack credit for flit 156941
Requeued flit 156941
1
Received nack credit for flit 195727
Requeued flit 195727
4
Received nack credit for flit 108160
Requeued flit 108160
6
Received nack credit for flit 159090
Requeued flit 159090
1
Received nack credit for flit 186157
Requeued flit 186157
1
Received nack credit for flit 201227
Requeued flit 201227
1
Received nack credit for flit 188267
Requeued flit 188267
7
Received nack credit for flit 115019
Requeued flit 115019
7
Received nack credit for flit 161090
Requeued flit 161090
1
Received nack credit for flit 194953
Requeued flit 194953
3
Received nack credit for flit 159811
Requeued flit 159811
8
Received nack credit for flit 154476
Requeued flit 154476
4
Received nack credit for flit 162712
Requeued flit 162712
1
Received nack credit for flit 200706
Requeued flit 200706
1
Received nack credit for flit 204087
Requeued flit 204087
1
Received nack credit for flit 207489
Requeued flit 207489
1
Received nack credit for flit 210169
Requeued flit 210169
1
Received nack credit for flit 205708
Requeued flit 205708
2
Received nack credit for flit 225258
Requeued flit 225258
8
Received nack credit for flit 180891
Requeued flit 180891
1
Received nack credit for flit 208278
Requeued flit 208278
4
Received nack credit for flit 171990
Requeued flit 171990
1
Received nack credit for flit 224238
Requeued flit 224238
1
Received nack credit for flit 223115
Requeued flit 223115
1
Received nack credit for flit 223612
Requeued flit 223612
1
Received nack credit for flit 225939
Requeued flit 225939
1
Received nack credit for flit 229484
Requeued flit 229484
8
4
Received nack credit for flit 139366
Requeued flit 139366
Received nack credit for flit 189385
Requeued flit 189385
7
Received nack credit for flit 129085
Requeued flit 129085
2
Received nack credit for flit 230294
Requeued flit 230294
9
Received nack credit for flit 169732
Requeued flit 169732
2
Received nack credit for flit 180036
Requeued flit 180036
1
Received nack credit for flit 244302
Requeued flit 244302
3
4
Received nack credit for flit 190264
Requeued flit 190264
Received nack credit for flit 177817
Requeued flit 177817
3
Received nack credit for flit 256723
Requeued flit 256723
1
Received nack credit for flit 245339
Requeued flit 245339
1
Received nack credit for flit 253828
Requeued flit 253828
1
Received nack credit for flit 246216
Requeued flit 246216
4
Received nack credit for flit 261131
Requeued flit 261131
2
Received nack credit for flit 261323
Requeued flit 261323
3
7
Received nack credit for flit 247847
Requeued flit 247847
Received nack credit for flit 208478
Requeued flit 208478
1
1
Received nack credit for flit 251103
Requeued flit 251103
Received nack credit for flit 225489
Requeued flit 225489
2
Received nack credit for flit 272295
Requeued flit 272295
6
Received nack credit for flit 201300
Requeued flit 201300
2
Received nack credit for flit 270399
Requeued flit 270399
7
Received nack credit for flit 191559
Requeued flit 191559
4
Received nack credit for flit 211253
Requeued flit 211253
11
Received nack credit for flit 200963
Requeued flit 200963
1
Received nack credit for flit 268139
Requeued flit 268139
4
Received nack credit for flit 261912
Requeued flit 261912
1
Received nack credit for flit 262032
Requeued flit 262032
3
Received nack credit for flit 262857
Requeued flit 262857
1
Received nack credit for flit 266518
Requeued flit 266518
1
Received nack credit for flit 272436
Requeued flit 272436
1
Received nack credit for flit 235451
Requeued flit 235451
5
5
Received nack credit for flit 162546
Requeued flit 162546
Received nack credit for flit 277631
Requeued flit 277631
1
Received nack credit for flit 287362
Requeued flit 287362
1
Received nack credit for flit 273966
Requeued flit 273966
5
Received nack credit for flit 230940
Requeued flit 230940
3
Received nack credit for flit 231178
Requeued flit 231178
3
Received nack credit for flit 270467
Requeued flit 270467
7
1
Received nack credit for flit 162894
Requeued flit 162894
Received nack credit for flit 277484
Requeued flit 277484
6
Received nack credit for flit 246772
Requeued flit 246772
5
Received nack credit for flit 291152
Requeued flit 291152
1
Received nack credit for flit 303945
Requeued flit 303945
1
Received nack credit for flit 305125
Requeued flit 305125
6
Received nack credit for flit 172190
Requeued flit 172190
2
6
Received nack credit for flit 219841
Requeued flit 219841
1
Received nack credit for flit 250987
Requeued flit 250987
Received nack credit for flit 291877
Requeued flit 291877
6
Received nack credit for flit 293941
Requeued flit 293941
2
Received nack credit for flit 231078
Requeued flit 231078
2
Received nack credit for flit 282383
Requeued flit 282383
4
Received nack credit for flit 170393
Requeued flit 170393
2
Received nack credit for flit 293571
Requeued flit 293571
4
Received nack credit for flit 197010
Requeued flit 197010
4
Received nack credit for flit 302972
Requeued flit 302972
1
Received nack credit for flit 282628
Requeued flit 282628
2
Received nack credit for flit 230446
Requeued flit 230446
2
Received nack credit for flit 311829
Requeued flit 311829
6
Received nack credit for flit 315783
Requeued flit 315783
1
Received nack credit for flit 290171
Requeued flit 290171
2
Received nack credit for flit 294819
Requeued flit 294819
8
Received nack credit for flit 254259
Requeued flit 254259
3
Received nack credit for flit 270962
Requeued flit 270962
5
Received nack credit for flit 202618
Requeued flit 202618
10
Received nack credit for flit 186574
Requeued flit 186574
1
Received nack credit for flit 333104
Requeued flit 333104
3
Received nack credit for flit 343249
Requeued flit 343249
6
Received nack credit for flit 214797
Requeued flit 214797
3
Received nack credit for flit 300399
Requeued flit 300399
1
Received nack credit for flit 306518
Requeued flit 306518
1
Received nack credit for flit 332418
Requeued flit 332418
7
Received nack credit for flit 335515
Requeued flit 335515
2
Received nack credit for flit 343148
Requeued flit 343148
4
Received nack credit for flit 297020
Requeued flit 297020
5
Received nack credit for flit 321392
Requeued flit 321392
4
Received nack credit for flit 289869
Requeued flit 289869
1
Received nack credit for flit 367859
Requeued flit 367859
1
Received nack credit for flit 354692
Requeued flit 354692
1
Received nack credit for flit 324072
Requeued flit 324072
6
Received nack credit for flit 296636
Requeued flit 296636
6
Received nack credit for flit 339524
Requeued flit 339524
5
Received nack credit for flit 370021
Requeued flit 370021
1
Received nack credit for flit 367177
Requeued flit 367177
1
Received nack credit for flit 329174
Requeued flit 329174
1
Received nack credit for flit 353531
Requeued flit 353531
5
3
Received nack credit for flit 363500
Requeued flit 363500
Received nack credit for flit 335861
Requeued flit 335861
1
1
Received nack credit for flit 360055
Requeued flit 360055
Received nack credit for flit 371010
Requeued flit 371010
1
Received nack credit for flit 381674
Requeued flit 381674
2
Received nack credit for flit 331010
Requeued flit 331010
Class 0:
Packet latency average = 1260.36
	minimum = 5
	maximum = 5723
Network latency average = 1200.47
	minimum = 5
	maximum = 5703
Slowest packet = 194128
Flit latency average = 1200.47
	minimum = 5
	maximum = 5703
Slowest flit = 201386
Fragmentation average = 0
	minimum = 0
	maximum = 0
Injected packet rate average = 0.617077
	minimum = 0.4644 (at node 6)
	maximum = 0.7584 (at node 51)
Accepted packet rate average = 0.509003
	minimum = 0.4916 (at node 21)
	maximum = 0.5237 (at node 8)
Injected flit rate average = 0.617077
	minimum = 0.4644 (at node 6)
	maximum = 0.7584 (at node 51)
Accepted flit rate average= 0.509003
	minimum = 0.4916 (at node 21)
	maximum = 0.5237 (at node 8)
Injected packet length average = 1
Accepted packet length average = 1
Total in-flight flits = 69198 (0 measured)
latency change    = 1
throughput change = 1
Average latency for class 0 exceeded 500 cycles. Aborting simulation.
Too many sample periods needed to converge
Simulation unstable, ending ...
Total run time 55.1286
