BEGIN Configuration File: examples/ecc_mesh88_config_1_0.950_link_5
// $Id$

// Copyright (c) 2007-2015, Trustees of The Leland Stanford Junior University
// All rights reserved.
//
// Redistribution and use in source and binary forms, with or without
// modification, are permitted provided that the following conditions are met:
//
// Redistributions of source code must retain the above copyright notice, this
// list of conditions and the following disclaimer.
// Redistributions in binary form must reproduce the above copyright notice,
// this list of conditions and the following disclaimer in the documentation
// and/or other materials provided with the distribution.
//
// THIS SOFTWARE IS PROVIDED BY THE COPYRIGHT HOLDERS AND CONTRIBUTORS "AS IS"
// AND ANY EXPRESS OR IMPLIED WARRANTIES, INCLUDING, BUT NOT LIMITED TO, THE
// IMPLIED WARRANTIES OF MERCHANTABILITY AND FITNESS FOR A PARTICULAR PURPOSE
// ARE DISCLAIMED. IN NO EVENT SHALL THE COPYRIGHT OWNER OR CONTRIBUTORS BE
// LIABLE FOR ANY DIRECT, INDIRECT, INCIDENTAL, SPECIAL, EXEMPLARY, OR
// CONSEQUENTIAL DAMAGES (INCLUDING, BUT NOT LIMITED TO, PROCUREMENT OF
// SUBSTITUTE GOODS OR SERVICES; LOSS OF USE, DATA, OR PROFITS; OR BUSINESS
// INTERRUPTION) HOWEVER CAUSED AND ON ANY THEORY OF LIABILITY, WHETHER IN
// CONTRACT, STRICT LIABILITY, OR TORT (INCLUDING NEGLIGENCE OR OTHERWISE)
// ARISING IN ANY WAY OUT OF THE USE OF THIS SOFTWARE, EVEN IF ADVISED OF THE
// POSSIBILITY OF SUCH DAMAGE.

// Dragonfly
//




vc_buf_size = 256;


wait_for_tail_credit = 0;

//
// Router architecture
//
vc_allocator = separable_input_first; 
sw_allocator = separable_input_first;
alloc_iters  = 1;

credit_delay   = 2;
routing_delay  = 0;
vc_alloc_delay = 1;
sw_alloc_delay = 1;
st_final_delay = 1;

input_speedup     = 1;
output_speedup    = 1;
internal_speedup  = 2.0;


warmup_periods = 3;
sim_count          = 1;

sample_period  = 10000;  


routing_function = dor;
num_vcs     = 2;

priority = none;
traffic       = uniform; 

injection_rate = 0.95;
packet_size = 1;
injection_rate_uses_flits = 1;

topology = mesh;

k  = 8;
n  = 2;

fer = 5;
ecc = link;

watch_out=-;
//watch_file = watch.txt;

ecc = link;

stats_out = examples/ecc_mesh88_config_1_0.950_link_5.m;

END Configuration File: examples/ecc_mesh88_config_1_0.950_link_5
1
Received nack credit for flit 8695
Requeued flit 8695
1
Received nack credit for flit 7621
Requeued flit 7621
1
Received nack credit for flit 24694
Requeued flit 24694
1
Received nack credit for flit 51993
Requeued flit 51993
1
Received nack credit for flit 76498
Requeued flit 76498
4
Received nack credit for flit 123087
Requeued flit 123087
1
Received nack credit for flit 175610
Requeued flit 175610
3
Received nack credit for flit 123052
Requeued flit 123052
7
Received nack credit for flit 75237
Requeued flit 75237
5
Received nack credit for flit 127066
Requeued flit 127066
1
Received nack credit for flit 190712
Requeued flit 190712
1
Received nack credit for flit 167228
Requeued flit 167228
1
Received nack credit for flit 179233
Requeued flit 179233
4
Received nack credit for flit 110602
Requeued flit 110602
6
Received nack credit for flit 217674
Requeued flit 217674
2
Received nack credit for flit 166257
Requeued flit 166257
6
Received nack credit for flit 133141
Requeued flit 133141
1
Received nack credit for flit 279132
Requeued flit 279132
6
Received nack credit for flit 135564
Requeued flit 135564
3
Received nack credit for flit 226537
Requeued flit 226537
1
Received nack credit for flit 327514
Requeued flit 327514
Class 0:
Packet latency average = 1877.64
	minimum = 5
	maximum = 7139
Network latency average = 1555.68
	minimum = 5
	maximum = 7114
Slowest packet = 165233
Flit latency average = 1555.68
	minimum = 5
	maximum = 7114
Slowest flit = 164913
Fragmentation average = 0
	minimum = 0
	maximum = 0
Injected packet rate average = 0.619522
	minimum = 0.4182 (at node 6)
	maximum = 0.9043 (at node 51)
Accepted packet rate average = 0.500966
	minimum = 0.478 (at node 21)
	maximum = 0.5164 (at node 14)
Injected flit rate average = 0.619522
	minimum = 0.4182 (at node 6)
	maximum = 0.9043 (at node 51)
Accepted flit rate average= 0.500966
	minimum = 0.478 (at node 21)
	maximum = 0.5164 (at node 14)
Injected packet length average = 1
Accepted packet length average = 1
Total in-flight flits = 75911 (0 measured)
latency change    = 1
throughput change = 1
Average latency for class 0 exceeded 500 cycles. Aborting simulation.
Too many sample periods needed to converge
Simulation unstable, ending ...
Total run time 56.8216
