BEGIN Configuration File: examples/ecc_mesh88_config_1_0.650_packet_5
// $Id$

// Copyright (c) 2007-2015, Trustees of The Leland Stanford Junior University
// All rights reserved.
//
// Redistribution and use in source and binary forms, with or without
// modification, are permitted provided that the following conditions are met:
//
// Redistributions of source code must retain the above copyright notice, this
// list of conditions and the following disclaimer.
// Redistributions in binary form must reproduce the above copyright notice,
// this list of conditions and the following disclaimer in the documentation
// and/or other materials provided with the distribution.
//
// THIS SOFTWARE IS PROVIDED BY THE COPYRIGHT HOLDERS AND CONTRIBUTORS "AS IS"
// AND ANY EXPRESS OR IMPLIED WARRANTIES, INCLUDING, BUT NOT LIMITED TO, THE
// IMPLIED WARRANTIES OF MERCHANTABILITY AND FITNESS FOR A PARTICULAR PURPOSE
// ARE DISCLAIMED. IN NO EVENT SHALL THE COPYRIGHT OWNER OR CONTRIBUTORS BE
// LIABLE FOR ANY DIRECT, INDIRECT, INCIDENTAL, SPECIAL, EXEMPLARY, OR
// CONSEQUENTIAL DAMAGES (INCLUDING, BUT NOT LIMITED TO, PROCUREMENT OF
// SUBSTITUTE GOODS OR SERVICES; LOSS OF USE, DATA, OR PROFITS; OR BUSINESS
// INTERRUPTION) HOWEVER CAUSED AND ON ANY THEORY OF LIABILITY, WHETHER IN
// CONTRACT, STRICT LIABILITY, OR TORT (INCLUDING NEGLIGENCE OR OTHERWISE)
// ARISING IN ANY WAY OUT OF THE USE OF THIS SOFTWARE, EVEN IF ADVISED OF THE
// POSSIBILITY OF SUCH DAMAGE.

// Dragonfly
//




vc_buf_size = 256;


wait_for_tail_credit = 0;

//
// Router architecture
//
vc_allocator = separable_input_first; 
sw_allocator = separable_input_first;
alloc_iters  = 1;

credit_delay   = 2;
routing_delay  = 0;
vc_alloc_delay = 1;
sw_alloc_delay = 1;
st_final_delay = 1;

input_speedup     = 1;
output_speedup    = 1;
internal_speedup  = 2.0;


warmup_periods = 3;
sim_count          = 1;

sample_period  = 10000;  


routing_function = dor;
num_vcs     = 2;

priority = none;
traffic       = uniform; 

injection_rate = 0.65;
packet_size = 1;
injection_rate_uses_flits = 1;

topology = mesh;

k  = 8;
n  = 2;

fer = 5;
ecc = link;

watch_out=-;
//watch_file = watch.txt;

ecc = packet;

stats_out = examples/ecc_mesh88_config_1_0.650_packet_5.m;

END Configuration File: examples/ecc_mesh88_config_1_0.650_packet_5
Additional hops: 4
Set signal latency stall time: 8
Reenqueueing errored packet 7033 at time 197
Additional hops: 11
Set signal latency stall time: 14
Reenqueueing errored packet 6807 at time 223
Additional hops: 14
Set signal latency stall time: 6
Reenqueueing errored packet 18697 at time 469
Additional hops: 22
Set signal latency stall time: 16
Reenqueueing errored packet 31719 at time 965
Additional hops: 29
Set signal latency stall time: 14
Reenqueueing errored packet 38523 at time 1411
Additional hops: 34
Set signal latency stall time: 10
Reenqueueing errored packet 55516 at time 1462
Additional hops: 39
Set signal latency stall time: 10
Reenqueueing errored packet 67030 at time 1976
Additional hops: 44
Set signal latency stall time: 10
Reenqueueing errored packet 85445 at time 2471
Additional hops: 48
Set signal latency stall time: 8
Reenqueueing errored packet 134288 at time 3734
Additional hops: 60
Set signal latency stall time: 24
Reenqueueing errored packet 96623 at time 3976
Additional hops: 65
Set signal latency stall time: 10
Reenqueueing errored packet 127958 at time 4052
Additional hops: 73
Set signal latency stall time: 16
Reenqueueing errored packet 146650 at time 4092
Additional hops: 80
Set signal latency stall time: 14
Reenqueueing errored packet 154844 at time 4567
Additional hops: 89
Set signal latency stall time: 18
Reenqueueing errored packet 126629 at time 4746
Additional hops: 94
Set signal latency stall time: 10
Reenqueueing errored packet 158723 at time 4919
Additional hops: 103
Set signal latency stall time: 18
Reenqueueing errored packet 143602 at time 5050
Additional hops: 109
Set signal latency stall time: 12
Reenqueueing errored packet 179499 at time 5121
Additional hops: 116
Set signal latency stall time: 14
Reenqueueing errored packet 150095 at time 5154
Additional hops: 124
Set signal latency stall time: 16
Reenqueueing errored packet 168486 at time 5393
Additional hops: 133
Set signal latency stall time: 18
Reenqueueing errored packet 215818 at time 5977
Additional hops: 141
Set signal latency stall time: 16
Reenqueueing errored packet 229973 at time 6174
Additional hops: 148
Set signal latency stall time: 14
Reenqueueing errored packet 240395 at time 6352
Additional hops: 157
Set signal latency stall time: 18
Reenqueueing errored packet 163244 at time 6676
Additional hops: 161
Set signal latency stall time: 8
Reenqueueing errored packet 210795 at time 7441
Additional hops: 169
Set signal latency stall time: 16
Reenqueueing errored packet 272546 at time 7679
Additional hops: 174
Set signal latency stall time: 10
Reenqueueing errored packet 324547 at time 8597
Additional hops: 178
Set signal latency stall time: 8
Reenqueueing errored packet 342766 at time 8674
Additional hops: 183
Set signal latency stall time: 10
Reenqueueing errored packet 335858 at time 8853
Class 0:
Packet latency average = 880.894
	minimum = 5
	maximum = 4536
Network latency average = 874.718
	minimum = 5
	maximum = 4536
Slowest packet = 224416
Flit latency average = 874.718
	minimum = 5
	maximum = 4536
Slowest flit = 224416
Fragmentation average = 0
	minimum = 0
	maximum = 0
Injected packet rate average = 0.604758
	minimum = 0.5161 (at node 9)
	maximum = 0.6585 (at node 53)
Accepted packet rate average = 0.511361
	minimum = 0.496 (at node 36)
	maximum = 0.5295 (at node 56)
Injected flit rate average = 0.604758
	minimum = 0.5161 (at node 9)
	maximum = 0.6585 (at node 53)
Accepted flit rate average= 0.511361
	minimum = 0.496 (at node 36)
	maximum = 0.5295 (at node 56)
Injected packet length average = 1
Accepted packet length average = 1
Total in-flight flits = 59792 (0 measured)
latency change    = 1
throughput change = 1
Average latency for class 0 exceeded 500 cycles. Aborting simulation.
Too many sample periods needed to converge
Simulation unstable, ending ...
Total run time 54.2298
