BEGIN Configuration File: examples/ecc_mesh88_config_1_0.550_link_4
// $Id$

// Copyright (c) 2007-2015, Trustees of The Leland Stanford Junior University
// All rights reserved.
//
// Redistribution and use in source and binary forms, with or without
// modification, are permitted provided that the following conditions are met:
//
// Redistributions of source code must retain the above copyright notice, this
// list of conditions and the following disclaimer.
// Redistributions in binary form must reproduce the above copyright notice,
// this list of conditions and the following disclaimer in the documentation
// and/or other materials provided with the distribution.
//
// THIS SOFTWARE IS PROVIDED BY THE COPYRIGHT HOLDERS AND CONTRIBUTORS "AS IS"
// AND ANY EXPRESS OR IMPLIED WARRANTIES, INCLUDING, BUT NOT LIMITED TO, THE
// IMPLIED WARRANTIES OF MERCHANTABILITY AND FITNESS FOR A PARTICULAR PURPOSE
// ARE DISCLAIMED. IN NO EVENT SHALL THE COPYRIGHT OWNER OR CONTRIBUTORS BE
// LIABLE FOR ANY DIRECT, INDIRECT, INCIDENTAL, SPECIAL, EXEMPLARY, OR
// CONSEQUENTIAL DAMAGES (INCLUDING, BUT NOT LIMITED TO, PROCUREMENT OF
// SUBSTITUTE GOODS OR SERVICES; LOSS OF USE, DATA, OR PROFITS; OR BUSINESS
// INTERRUPTION) HOWEVER CAUSED AND ON ANY THEORY OF LIABILITY, WHETHER IN
// CONTRACT, STRICT LIABILITY, OR TORT (INCLUDING NEGLIGENCE OR OTHERWISE)
// ARISING IN ANY WAY OUT OF THE USE OF THIS SOFTWARE, EVEN IF ADVISED OF THE
// POSSIBILITY OF SUCH DAMAGE.

// Dragonfly
//




vc_buf_size = 256;


wait_for_tail_credit = 0;

//
// Router architecture
//
vc_allocator = separable_input_first; 
sw_allocator = separable_input_first;
alloc_iters  = 1;

credit_delay   = 2;
routing_delay  = 0;
vc_alloc_delay = 1;
sw_alloc_delay = 1;
st_final_delay = 1;

input_speedup     = 1;
output_speedup    = 1;
internal_speedup  = 2.0;


warmup_periods = 3;
sim_count          = 1;

sample_period  = 10000;  


routing_function = dor;
num_vcs     = 2;

priority = none;
traffic       = uniform; 

injection_rate = 0.55;
packet_size = 1;
injection_rate_uses_flits = 1;

topology = mesh;

k  = 8;
n  = 2;

fer = 4;
ecc = link;

watch_out=-;
//watch_file = watch.txt;

ecc = link;

stats_out = examples/ecc_mesh88_config_1_0.550_link_4.m;

END Configuration File: examples/ecc_mesh88_config_1_0.550_link_4
1
1
Received nack credit for flit 920
Requeued flit 920
Received nack credit for flit 1185
Requeued flit 1185
1
Received nack credit for flit 2228
Requeued flit 2228
1
Received nack credit for flit 3005
Requeued flit 3005
1
Received nack credit for flit 5192
Requeued flit 5192
1
Received nack credit for flit 6063
Requeued flit 6063
1
Received nack credit for flit 6823
Requeued flit 6823
3
Received nack credit for flit 6921
Requeued flit 6921
1
Received nack credit for flit 9322
Requeued flit 9322
3
Received nack credit for flit 13102
Requeued flit 13102
4
Received nack credit for flit 16016
Requeued flit 16016
1
Received nack credit for flit 19917
Requeued flit 19917
1
Received nack credit for flit 24629
Requeued flit 24629
4
Received nack credit for flit 25131
Requeued flit 25131
1
Received nack credit for flit 27052
Requeued flit 27052
1
Received nack credit for flit 31583
Requeued flit 31583
3
Received nack credit for flit 30401
Requeued flit 30401
2
Received nack credit for flit 31245
Requeued flit 31245
7
Received nack credit for flit 30244
Requeued flit 30244
8
4
Received nack credit for flit 33081
Requeued flit 33081
Received nack credit for flit 36423
Requeued flit 36423
2
Received nack credit for flit 41498
Requeued flit 41498
1
Received nack credit for flit 44936
Requeued flit 44936
1
Received nack credit for flit 44343
Requeued flit 44343
6
Received nack credit for flit 42134
Requeued flit 42134
1
Received nack credit for flit 46242
Requeued flit 46242
8
Received nack credit for flit 41245
Requeued flit 41245
1
Received nack credit for flit 51511
Requeued flit 51511
1
Received nack credit for flit 50884
Requeued flit 50884
1
Received nack credit for flit 53506
Requeued flit 53506
2
Received nack credit for flit 51197
Requeued flit 51197
5
Received nack credit for flit 54271
Requeued flit 54271
6
Received nack credit for flit 52188
Requeued flit 52188
2
Received nack credit for flit 53311
Requeued flit 53311
1
Received nack credit for flit 57184
Requeued flit 57184
1
Received nack credit for flit 60596
Requeued flit 60596
11
Received nack credit for flit 50756
Requeued flit 50756
6
Received nack credit for flit 57620
Requeued flit 57620
3
Received nack credit for flit 57062
Requeued flit 57062
4
Received nack credit for flit 62737
Requeued flit 62737
1
Received nack credit for flit 68906
Requeued flit 68906
8
Received nack credit for flit 67013
Requeued flit 67013
1
Received nack credit for flit 79403
Requeued flit 79403
2
Received nack credit for flit 71486
Requeued flit 71486
5
Received nack credit for flit 74911
Requeued flit 74911
4
Received nack credit for flit 72845
Requeued flit 72845
5
Received nack credit for flit 74382
Requeued flit 74382
1
Received nack credit for flit 84259
Requeued flit 84259
1
Received nack credit for flit 80082
Requeued flit 80082
4
Received nack credit for flit 80092
Requeued flit 80092
11
Received nack credit for flit 75565
Requeued flit 75565
2
Received nack credit for flit 87873
Requeued flit 87873
1
Received nack credit for flit 87178
Requeued flit 87178
1
Received nack credit for flit 91241
Requeued flit 91241
5
Received nack credit for flit 90986
Requeued flit 90986
4
Received nack credit for flit 85717
Requeued flit 85717
1
Received nack credit for flit 97676
Requeued flit 97676
1
Received nack credit for flit 98380
Requeued flit 98380
5
Received nack credit for flit 94716
Requeued flit 94716
4
Received nack credit for flit 105229
Requeued flit 105229
1
Received nack credit for flit 114139
Requeued flit 114139
3
Received nack credit for flit 119067
Requeued flit 119067
5
Received nack credit for flit 116763
Requeued flit 116763
5
Received nack credit for flit 109660
Requeued flit 109660
5
Received nack credit for flit 112795
Requeued flit 112795
6
Received nack credit for flit 114324
Requeued flit 114324
11
Received nack credit for flit 109496
Requeued flit 109496
1
3
Received nack credit for flit 123180
Requeued flit 123180
Received nack credit for flit 118048
Requeued flit 118048
9
Received nack credit for flit 115699
Requeued flit 115699
7
Received nack credit for flit 126504
Requeued flit 126504
2
Received nack credit for flit 137546
Requeued flit 137546
5
Received nack credit for flit 125473
Requeued flit 125473
6
Received nack credit for flit 117724
Requeued flit 117724
1
3
Received nack credit for flit 139769
Requeued flit 139769
Received nack credit for flit 134019
Requeued flit 134019
3
Received nack credit for flit 131116
Requeued flit 131116
1
4
Received nack credit for flit 146010
Requeued flit 146010
Received nack credit for flit 134431
Requeued flit 134431
1
Received nack credit for flit 149361
Requeued flit 149361
3
Received nack credit for flit 146735
Requeued flit 146735
1
Received nack credit for flit 151021
Requeued flit 151021
1
1
Received nack credit for flit 151779
Requeued flit 151779
Received nack credit for flit 152140
Requeued flit 152140
1
Received nack credit for flit 154078
Requeued flit 154078
5
1
Received nack credit for flit 136907
Requeued flit 136907
Received nack credit for flit 155434
Requeued flit 155434
6
Received nack credit for flit 146589
Requeued flit 146589
1
Received nack credit for flit 153248
Requeued flit 153248
7
Received nack credit for flit 148069
Requeued flit 148069
6
Received nack credit for flit 146377
Requeued flit 146377
4
Received nack credit for flit 160219
Requeued flit 160219
1
Received nack credit for flit 173615
Requeued flit 173615
8
6
Received nack credit for flit 152299
Requeued flit 152299
Received nack credit for flit 155913
Requeued flit 155913
7
Received nack credit for flit 160483
Requeued flit 160483
1
Received nack credit for flit 178424
Requeued flit 178424
1
Received nack credit for flit 175170
Requeued flit 175170
5
Received nack credit for flit 166263
Requeued flit 166263
1
Received nack credit for flit 174007
Requeued flit 174007
1
Received nack credit for flit 178039
Requeued flit 178039
1
Received nack credit for flit 187707
Requeued flit 187707
4
Received nack credit for flit 177560
Requeued flit 177560
1
3
2
Received nack credit for flit 189807
Requeued flit 189807
Received nack credit for flit 189528
Requeued flit 189528
Received nack credit for flit 175444
Requeued flit 175444
1
Received nack credit for flit 190621
Requeued flit 190621
1
Received nack credit for flit 182040
Requeued flit 182040
3
Received nack credit for flit 186112
Requeued flit 186112
2
Received nack credit for flit 193890
Requeued flit 193890
2
Received nack credit for flit 194660
Requeued flit 194660
1
Received nack credit for flit 196187
Requeued flit 196187
1
Received nack credit for flit 191430
Requeued flit 191430
1
Received nack credit for flit 200287
Requeued flit 200287
1
Received nack credit for flit 189669
Requeued flit 189669
5
Received nack credit for flit 192403
Requeued flit 192403
1
Received nack credit for flit 205949
Requeued flit 205949
2
Received nack credit for flit 195905
Requeued flit 195905
1
Received nack credit for flit 211893
Requeued flit 211893
3
Received nack credit for flit 190000
Requeued flit 190000
5
Received nack credit for flit 193323
Requeued flit 193323
1
Received nack credit for flit 198798
Requeued flit 198798
9
Received nack credit for flit 197905
Requeued flit 197905
6
Received nack credit for flit 196508
Requeued flit 196508
6
Received nack credit for flit 205347
Requeued flit 205347
4
3
Received nack credit for flit 211226
Requeued flit 211226
Received nack credit for flit 194923
Requeued flit 194923
1
Received nack credit for flit 206434
Requeued flit 206434
1
5
Received nack credit for flit 222252
Requeued flit 222252
Received nack credit for flit 214697
Requeued flit 214697
6
Received nack credit for flit 212608
Requeued flit 212608
6
Received nack credit for flit 202064
Requeued flit 202064
3
Received nack credit for flit 225548
Requeued flit 225548
3
Received nack credit for flit 216569
Requeued flit 216569
1
Received nack credit for flit 226951
Requeued flit 226951
3
Received nack credit for flit 232403
Requeued flit 232403
5
Received nack credit for flit 212936
Requeued flit 212936
1
Received nack credit for flit 236810
Requeued flit 236810
3
Received nack credit for flit 238027
Requeued flit 238027
4
Received nack credit for flit 216028
Requeued flit 216028
5
4
Received nack credit for flit 215037
Requeued flit 215037
Received nack credit for flit 219548
Requeued flit 219548
6
Received nack credit for flit 222877
Requeued flit 222877
2
Received nack credit for flit 218700
Requeued flit 218700
1
Received nack credit for flit 240358
Requeued flit 240358
1
Received nack credit for flit 250776
Requeued flit 250776
2
Received nack credit for flit 254115
Requeued flit 254115
5
8
Received nack credit for flit 243610
Requeued flit 243610
Received nack credit for flit 217272
Requeued flit 217272
3
Received nack credit for flit 242307
Requeued flit 242307
1
Received nack credit for flit 261695
Requeued flit 261695
5
Received nack credit for flit 239704
Requeued flit 239704
5
Received nack credit for flit 244693
Requeued flit 244693
7
1
Received nack credit for flit 240702
Requeued flit 240702
Received nack credit for flit 264980
Requeued flit 264980
1
Received nack credit for flit 265527
Requeued flit 265527
6
Received nack credit for flit 224708
Requeued flit 224708
4
Received nack credit for flit 241302
Requeued flit 241302
2
Received nack credit for flit 267826
Requeued flit 267826
3
Received nack credit for flit 260414
Requeued flit 260414
7
Received nack credit for flit 245755
Requeued flit 245755
2
Received nack credit for flit 271016
Requeued flit 271016
1
Received nack credit for flit 274269
Requeued flit 274269
7
Received nack credit for flit 241876
Requeued flit 241876
1
Received nack credit for flit 276276
Requeued flit 276276
7
Received nack credit for flit 241905
Requeued flit 241905
2
Received nack credit for flit 266190
Requeued flit 266190
2
Received nack credit for flit 284553
Requeued flit 284553
1
Received nack credit for flit 279836
Requeued flit 279836
4
4
Received nack credit for flit 258571
Requeued flit 258571
Received nack credit for flit 257938
Requeued flit 257938
8
Received nack credit for flit 251405
Requeued flit 251405
2
Received nack credit for flit 289523
Requeued flit 289523
7
Received nack credit for flit 245381
Requeued flit 245381
3
Received nack credit for flit 287356
Requeued flit 287356
1
1
8
Received nack credit for flit 294787
Requeued flit 294787
Received nack credit for flit 283974
Requeued flit 283974
Received nack credit for flit 270188
Requeued flit 270188
2
Received nack credit for flit 281657
Requeued flit 281657
2
Received nack credit for flit 299645
Requeued flit 299645
7
Received nack credit for flit 271080
Requeued flit 271080
4
Received nack credit for flit 277299
Requeued flit 277299
7
Received nack credit for flit 263592
Requeued flit 263592
8
Received nack credit for flit 273621
Requeued flit 273621
4
Received nack credit for flit 286946
Requeued flit 286946
2
Received nack credit for flit 307234
Requeued flit 307234
3
Received nack credit for flit 301620
Requeued flit 301620
1
Received nack credit for flit 297469
Requeued flit 297469
10
3
Received nack credit for flit 277079
Requeued flit 277079
Received nack credit for flit 312375
Requeued flit 312375
1
Received nack credit for flit 313705
Requeued flit 313705
6
Received nack credit for flit 279510
Requeued flit 279510
1
Received nack credit for flit 320259
Requeued flit 320259
4
Received nack credit for flit 283163
Requeued flit 283163
5
Received nack credit for flit 283101
Requeued flit 283101
11
2
Received nack credit for flit 272367
Requeued flit 272367
Received nack credit for flit 322143
Requeued flit 322143
1
Received nack credit for flit 326577
Requeued flit 326577
1
5
Received nack credit for flit 331327
Requeued flit 331327
Received nack credit for flit 293080
Requeued flit 293080
1
Received nack credit for flit 322255
Requeued flit 322255
5
Received nack credit for flit 313719
Requeued flit 313719
1
Received nack credit for flit 343992
Requeued flit 343992
4
Received nack credit for flit 297744
Requeued flit 297744
2
Received nack credit for flit 323357
Requeued flit 323357
Class 0:
Packet latency average = 373.285
	minimum = 5
	maximum = 1912
Network latency average = 373.285
	minimum = 5
	maximum = 1912
Slowest packet = 268796
Flit latency average = 373.285
	minimum = 5
	maximum = 1912
Slowest flit = 268796
Fragmentation average = 0
	minimum = 0
	maximum = 0
Injected packet rate average = 0.54958
	minimum = 0.5369 (at node 29)
	maximum = 0.5615 (at node 3)
Accepted packet rate average = 0.507819
	minimum = 0.4937 (at node 36)
	maximum = 0.5253 (at node 14)
Injected flit rate average = 0.54958
	minimum = 0.5369 (at node 29)
	maximum = 0.5615 (at node 3)
Accepted flit rate average= 0.507819
	minimum = 0.4937 (at node 36)
	maximum = 0.5253 (at node 14)
Injected packet length average = 1
Accepted packet length average = 1
Total in-flight flits = 26727 (0 measured)
latency change    = 1
throughput change = 1
1
1
Received nack credit for flit 351639
Requeued flit 351639
Received nack credit for flit 351820
Requeued flit 351820
5
Received nack credit for flit 316117
Requeued flit 316117
8
Received nack credit for flit 317817
Requeued flit 317817
7
Received nack credit for flit 299201
Requeued flit 299201
1
Received nack credit for flit 357600
Requeued flit 357600
6
Received nack credit for flit 333044
Requeued flit 333044
1
Received nack credit for flit 366377
Requeued flit 366377
1
Received nack credit for flit 370088
Requeued flit 370088
1
Received nack credit for flit 369366
Requeued flit 369366
1
Received nack credit for flit 362161
Requeued flit 362161
1
Received nack credit for flit 379346
Requeued flit 379346
3
Received nack credit for flit 343671
Requeued flit 343671
5
Received nack credit for flit 359272
Requeued flit 359272
2
Received nack credit for flit 367675
Requeued flit 367675
2
Received nack credit for flit 366664
Requeued flit 366664
1
6
Received nack credit for flit 382919
Requeued flit 382919
Received nack credit for flit 367382
Requeued flit 367382
5
Received nack credit for flit 366364
Requeued flit 366364
1
Received nack credit for flit 386094
Requeued flit 386094
2
Received nack credit for flit 350375
Requeued flit 350375
1
Received nack credit for flit 387994
Requeued flit 387994
8
Received nack credit for flit 340794
Requeued flit 340794
3
Received nack credit for flit 382714
Requeued flit 382714
1
Received nack credit for flit 383958
Requeued flit 383958
2
Received nack credit for flit 392538
Requeued flit 392538
1
Received nack credit for flit 394218
Requeued flit 394218
3
Received nack credit for flit 361337
Requeued flit 361337
1
Received nack credit for flit 381334
Requeued flit 381334
1
8
Received nack credit for flit 401424
Requeued flit 401424
Received nack credit for flit 366203
Requeued flit 366203
1
Received nack credit for flit 385143
Requeued flit 385143
2
Received nack credit for flit 365547
Requeued flit 365547
6
Received nack credit for flit 361210
Requeued flit 361210
1
Received nack credit for flit 408733
Requeued flit 408733
1
Received nack credit for flit 411468
Requeued flit 411468
6
6
Received nack credit for flit 373105
Requeued flit 373105
Received nack credit for flit 359811
Requeued flit 359811
6
Received nack credit for flit 356936
Requeued flit 356936
1
3
Received nack credit for flit 419667
Requeued flit 419667
Received nack credit for flit 419572
Requeued flit 419572
3
Received nack credit for flit 420591
Requeued flit 420591
2
Received nack credit for flit 421279
Requeued flit 421279
4
Received nack credit for flit 412207
Requeued flit 412207
5
Received nack credit for flit 373624
Requeued flit 373624
8
Received nack credit for flit 364655
Requeued flit 364655
5
4
Received nack credit for flit 410407
Requeued flit 410407
Received nack credit for flit 389988
Requeued flit 389988
3
Received nack credit for flit 413243
Requeued flit 413243
2
1
Received nack credit for flit 432102
Requeued flit 432102
Received nack credit for flit 433150
Requeued flit 433150
4
Received nack credit for flit 390769
Requeued flit 390769
7
Received nack credit for flit 375780
Requeued flit 375780
2
Received nack credit for flit 439440
Requeued flit 439440
1
Received nack credit for flit 440099
Requeued flit 440099
2
Received nack credit for flit 401935
Requeued flit 401935
1
Received nack credit for flit 440845
Requeued flit 440845
5
Received nack credit for flit 406233
Requeued flit 406233
5
Received nack credit for flit 415529
Requeued flit 415529
1
1
Received nack credit for flit 437311
Requeued flit 437311
Received nack credit for flit 455182
Requeued flit 455182
5
Received nack credit for flit 423212
Requeued flit 423212
1
Received nack credit for flit 459394
Requeued flit 459394
7
Received nack credit for flit 417077
Requeued flit 417077
1
Received nack credit for flit 469284
Requeued flit 469284
1
Received nack credit for flit 461042
Requeued flit 461042
7
1
Received nack credit for flit 433443
Requeued flit 433443
Received nack credit for flit 470653
Requeued flit 470653
4
Received nack credit for flit 471265
Requeued flit 471265
2
Received nack credit for flit 461808
Requeued flit 461808
1
Received nack credit for flit 475941
Requeued flit 475941
1
Received nack credit for flit 477781
Requeued flit 477781
4
Received nack credit for flit 414188
Requeued flit 414188
1
Received nack credit for flit 480990
Requeued flit 480990
4
Received nack credit for flit 464549
Requeued flit 464549
7
Received nack credit for flit 428005
Requeued flit 428005
8
Received nack credit for flit 422348
Requeued flit 422348
4
Received nack credit for flit 471750
Requeued flit 471750
2
Received nack credit for flit 459816
Requeued flit 459816
1
Received nack credit for flit 493708
Requeued flit 493708
3
Received nack credit for flit 457647
Requeued flit 457647
7
Received nack credit for flit 460095
Requeued flit 460095
2
Received nack credit for flit 483352
Requeued flit 483352
4
2
Received nack credit for flit 432639
Requeued flit 432639
Received nack credit for flit 464293
Requeued flit 464293
1
Received nack credit for flit 502665
Requeued flit 502665
4
4
Received nack credit for flit 436436
Requeued flit 436436
Received nack credit for flit 436373
Requeued flit 436373
6
Received nack credit for flit 437777
Requeued flit 437777
1
Received nack credit for flit 506124
Requeued flit 506124
2
Received nack credit for flit 468433
Requeued flit 468433
7
Received nack credit for flit 473372
Requeued flit 473372
2
Received nack credit for flit 476669
Requeued flit 476669
1
Received nack credit for flit 512269
Requeued flit 512269
4
Received nack credit for flit 504952
Requeued flit 504952
3
Received nack credit for flit 504051
Requeued flit 504051
1
Received nack credit for flit 504261
Requeued flit 504261
7
2
Received nack credit for flit 475552
Requeued flit 475552
Received nack credit for flit 505144
Requeued flit 505144
1
Received nack credit for flit 524896
Requeued flit 524896
6
Received nack credit for flit 477038
Requeued flit 477038
1
Received nack credit for flit 525856
Requeued flit 525856
9
1
Received nack credit for flit 432552
Requeued flit 432552
Received nack credit for flit 526422
Requeued flit 526422
1
Received nack credit for flit 531369
Requeued flit 531369
3
Received nack credit for flit 458818
Requeued flit 458818
2
Received nack credit for flit 533662
Requeued flit 533662
6
Received nack credit for flit 498833
Requeued flit 498833
1
Received nack credit for flit 539300
Requeued flit 539300
6
Received nack credit for flit 477089
Requeued flit 477089
1
Received nack credit for flit 543231
Requeued flit 543231
1
Received nack credit for flit 548850
Requeued flit 548850
5
Received nack credit for flit 510978
Requeued flit 510978
6
Received nack credit for flit 514009
Requeued flit 514009
4
Received nack credit for flit 488493
Requeued flit 488493
4
4
Received nack credit for flit 493773
Requeued flit 493773
Received nack credit for flit 553480
Requeued flit 553480
5
Received nack credit for flit 488922
Requeued flit 488922
3
Received nack credit for flit 518622
Requeued flit 518622
3
Received nack credit for flit 521272
Requeued flit 521272
6
Received nack credit for flit 522743
Requeued flit 522743
5
Received nack credit for flit 531127
Requeued flit 531127
1
Received nack credit for flit 564110
Requeued flit 564110
2
Received nack credit for flit 517931
Requeued flit 517931
1
Received nack credit for flit 566818
Requeued flit 566818
2
Received nack credit for flit 566920
Requeued flit 566920
1
Received nack credit for flit 568034
Requeued flit 568034
2
Received nack credit for flit 536482
Requeued flit 536482
2
Received nack credit for flit 541190
Requeued flit 541190
3
Received nack credit for flit 543195
Requeued flit 543195
3
Received nack credit for flit 542638
Requeued flit 542638
1
Received nack credit for flit 564516
Requeued flit 564516
1
Received nack credit for flit 584946
Requeued flit 584946
1
Received nack credit for flit 587689
Requeued flit 587689
1
Received nack credit for flit 563243
Requeued flit 563243
10
Received nack credit for flit 511417
Requeued flit 511417
7
Received nack credit for flit 502689
Requeued flit 502689
1
Received nack credit for flit 578143
Requeued flit 578143
3
Received nack credit for flit 562658
Requeued flit 562658
6
Received nack credit for flit 514944
Requeued flit 514944
2
Received nack credit for flit 587065
Requeued flit 587065
5
Received nack credit for flit 518056
Requeued flit 518056
4
6
Received nack credit for flit 541361
Requeued flit 541361
Received nack credit for flit 531143
Requeued flit 531143
4
Received nack credit for flit 539224
Requeued flit 539224
2
Received nack credit for flit 598915
Requeued flit 598915
6
Received nack credit for flit 597339
Requeued flit 597339
8
Received nack credit for flit 501113
Requeued flit 501113
1
Received nack credit for flit 620672
Requeued flit 620672
2
Received nack credit for flit 622790
Requeued flit 622790
2
Received nack credit for flit 583288
Requeued flit 583288
7
Received nack credit for flit 586743
Requeued flit 586743
3
Received nack credit for flit 626568
Requeued flit 626568
1
Received nack credit for flit 616714
Requeued flit 616714
1
Received nack credit for flit 594133
Requeued flit 594133
9
Received nack credit for flit 568132
Requeued flit 568132
2
Received nack credit for flit 635168
Requeued flit 635168
1
Received nack credit for flit 640853
Requeued flit 640853
3
Received nack credit for flit 624200
Requeued flit 624200
4
Received nack credit for flit 606357
Requeued flit 606357
1
Received nack credit for flit 643731
Requeued flit 643731
5
Received nack credit for flit 606911
Requeued flit 606911
7
Received nack credit for flit 611318
Requeued flit 611318
3
Received nack credit for flit 633434
Requeued flit 633434
3
Received nack credit for flit 632547
Requeued flit 632547
5
Received nack credit for flit 651879
Requeued flit 651879
1
Received nack credit for flit 596196
Requeued flit 596196
2
Received nack credit for flit 654146
Requeued flit 654146
8
Received nack credit for flit 554043
Requeued flit 554043
2
Received nack credit for flit 649710
Requeued flit 649710
2
3
Received nack credit for flit 658704
Requeued flit 658704
Received nack credit for flit 560420
Requeued flit 560420
1
Received nack credit for flit 665430
Requeued flit 665430
3
Received nack credit for flit 648810
Requeued flit 648810
1
Received nack credit for flit 656105
Requeued flit 656105
4
Received nack credit for flit 672346
Requeued flit 672346
4
Received nack credit for flit 673341
Requeued flit 673341
11
Received nack credit for flit 598593
Requeued flit 598593
1
Received nack credit for flit 675952
Requeued flit 675952
4
Received nack credit for flit 643868
Requeued flit 643868
1
4
Received nack credit for flit 683435
Requeued flit 683435
Received nack credit for flit 585047
Requeued flit 585047
4
Received nack credit for flit 625209
Requeued flit 625209
4
Received nack credit for flit 610402
Requeued flit 610402
6
Received nack credit for flit 587911
Requeued flit 587911
3
1
Received nack credit for flit 687830
Requeued flit 687830
Received nack credit for flit 679335
Requeued flit 679335
1
Received nack credit for flit 693470
Requeued flit 693470
2
Received nack credit for flit 695416
Requeued flit 695416
Class 0:
Packet latency average = 751.082
	minimum = 5
	maximum = 4026
Network latency average = 750.276
	minimum = 5
	maximum = 4026
Slowest packet = 561423
Flit latency average = 750.276
	minimum = 5
	maximum = 4026
Slowest flit = 561423
Fragmentation average = 0
	minimum = 0
	maximum = 0
Injected packet rate average = 0.546219
	minimum = 0.5283 (at node 25)
	maximum = 0.55645 (at node 35)
Accepted packet rate average = 0.504763
	minimum = 0.49495 (at node 36)
	maximum = 0.5166 (at node 39)
Injected flit rate average = 0.546219
	minimum = 0.5283 (at node 25)
	maximum = 0.55645 (at node 35)
Accepted flit rate average= 0.504763
	minimum = 0.49495 (at node 36)
	maximum = 0.5166 (at node 39)
Injected packet length average = 1
Accepted packet length average = 1
Total in-flight flits = 53073 (0 measured)
latency change    = 0.503004
throughput change = 0.00605483
Average latency for class 0 exceeded 500 cycles. Aborting simulation.
Too many sample periods needed to converge
Simulation unstable, ending ...
Total run time 81.8981
