BEGIN Configuration File: examples/ecc_mesh88_config_1_0.400_link_3
// $Id$

// Copyright (c) 2007-2015, Trustees of The Leland Stanford Junior University
// All rights reserved.
//
// Redistribution and use in source and binary forms, with or without
// modification, are permitted provided that the following conditions are met:
//
// Redistributions of source code must retain the above copyright notice, this
// list of conditions and the following disclaimer.
// Redistributions in binary form must reproduce the above copyright notice,
// this list of conditions and the following disclaimer in the documentation
// and/or other materials provided with the distribution.
//
// THIS SOFTWARE IS PROVIDED BY THE COPYRIGHT HOLDERS AND CONTRIBUTORS "AS IS"
// AND ANY EXPRESS OR IMPLIED WARRANTIES, INCLUDING, BUT NOT LIMITED TO, THE
// IMPLIED WARRANTIES OF MERCHANTABILITY AND FITNESS FOR A PARTICULAR PURPOSE
// ARE DISCLAIMED. IN NO EVENT SHALL THE COPYRIGHT OWNER OR CONTRIBUTORS BE
// LIABLE FOR ANY DIRECT, INDIRECT, INCIDENTAL, SPECIAL, EXEMPLARY, OR
// CONSEQUENTIAL DAMAGES (INCLUDING, BUT NOT LIMITED TO, PROCUREMENT OF
// SUBSTITUTE GOODS OR SERVICES; LOSS OF USE, DATA, OR PROFITS; OR BUSINESS
// INTERRUPTION) HOWEVER CAUSED AND ON ANY THEORY OF LIABILITY, WHETHER IN
// CONTRACT, STRICT LIABILITY, OR TORT (INCLUDING NEGLIGENCE OR OTHERWISE)
// ARISING IN ANY WAY OUT OF THE USE OF THIS SOFTWARE, EVEN IF ADVISED OF THE
// POSSIBILITY OF SUCH DAMAGE.

// Dragonfly
//




vc_buf_size = 256;


wait_for_tail_credit = 0;

//
// Router architecture
//
vc_allocator = separable_input_first; 
sw_allocator = separable_input_first;
alloc_iters  = 1;

credit_delay   = 2;
routing_delay  = 0;
vc_alloc_delay = 1;
sw_alloc_delay = 1;
st_final_delay = 1;

input_speedup     = 1;
output_speedup    = 1;
internal_speedup  = 2.0;


warmup_periods = 3;
sim_count          = 1;

sample_period  = 10000;  


routing_function = dor;
num_vcs     = 2;

priority = none;
traffic       = uniform; 

injection_rate = 0.4;
packet_size = 1;
injection_rate_uses_flits = 1;

topology = mesh;

k  = 8;
n  = 2;

fer = 3;
ecc = link;

watch_out=-;
//watch_file = watch.txt;

ecc = link;

stats_out = examples/ecc_mesh88_config_1_0.400_link_3.m;

END Configuration File: examples/ecc_mesh88_config_1_0.400_link_3
6
5
Received nack credit for flit 160
Requeued flit 160
1
Received nack credit for flit 318
Requeued flit 318
2
7
Received nack credit for flit 726
Requeued flit 726
3
Received nack credit for flit 783
Requeued flit 783
Received nack credit for flit 333
Requeued flit 333
4
1
Received nack credit for flit 759
Requeued flit 759
6
Received nack credit for flit 1010
Requeued flit 1010
Received nack credit for flit 767
Requeued flit 767
Received nack credit for flit 741
Requeued flit 741
7
7
1
Received nack credit for flit 798
Requeued flit 798
Received nack credit for flit 1403
Requeued flit 1403
Received nack credit for flit 894
Requeued flit 894
6
2
3
Received nack credit for flit 1349
Requeued flit 1349
Received nack credit for flit 1701
Requeued flit 1701
5
Received nack credit for flit 1439
Requeued flit 1439
Received nack credit for flit 1644
Requeued flit 1644
8
1
Received nack credit for flit 2291
Requeued flit 2291
Received nack credit for flit 1725
Requeued flit 1725
2
Received nack credit for flit 2671
Requeued flit 2671
1
Received nack credit for flit 2968
Requeued flit 2968
5
2
Received nack credit for flit 2725
Requeued flit 2725
Received nack credit for flit 3174
Requeued flit 3174
5
4
Received nack credit for flit 3087
Requeued flit 3087
Received nack credit for flit 3279
Requeued flit 3279
1
5
Received nack credit for flit 3764
Requeued flit 3764
8
Received nack credit for flit 3545
Requeued flit 3545
1
Received nack credit for flit 3266
Requeued flit 3266
6
Received nack credit for flit 4074
Requeued flit 4074
Received nack credit for flit 3697
Requeued flit 3697
1
3
Received nack credit for flit 4282
Requeued flit 4282
Received nack credit for flit 4109
Requeued flit 4109
2
3
4
Received nack credit for flit 5119
Requeued flit 5119
Received nack credit for flit 5146
Requeued flit 5146
Received nack credit for flit 5025
Requeued flit 5025
5
4
1
3
Received nack credit for flit 5172
Requeued flit 5172
Received nack credit for flit 5327
Requeued flit 5327
Received nack credit for flit 5577
Requeued flit 5577
Received nack credit for flit 5464
Requeued flit 5464
2
1
Received nack credit for flit 5749
Requeued flit 5749
Received nack credit for flit 5953
Requeued flit 5953
4
Received nack credit for flit 6198
Requeued flit 6198
1
Received nack credit for flit 6861
Requeued flit 6861
1
Received nack credit for flit 7398
Requeued flit 7398
5
4
Received nack credit for flit 7494
Requeued flit 7494
2
Received nack credit for flit 7547
Requeued flit 7547
Received nack credit for flit 7825
Requeued flit 7825
6
4
Received nack credit for flit 7611
Requeued flit 7611
Received nack credit for flit 7896
Requeued flit 7896
7
Received nack credit for flit 8126
Requeued flit 8126
1
2
Received nack credit for flit 8849
Requeued flit 8849
3
1
Received nack credit for flit 8947
Requeued flit 8947
Received nack credit for flit 9121
Requeued flit 9121
3
Received nack credit for flit 8904
Requeued flit 8904
Received nack credit for flit 9127
Requeued flit 9127
1
1
Received nack credit for flit 9617
Requeued flit 9617
Received nack credit for flit 9720
Requeued flit 9720
1
Received nack credit for flit 10051
Requeued flit 10051
4
2
Received nack credit for flit 10112
Requeued flit 10112
4
Received nack credit for flit 10434
Requeued flit 10434
Received nack credit for flit 10410
Requeued flit 10410
7
1
Received nack credit for flit 10273
Requeued flit 10273
Received nack credit for flit 10826
Requeued flit 10826
1
2
Received nack credit for flit 11032
Requeued flit 11032
2
Received nack credit for flit 11113
Requeued flit 11113
Received nack credit for flit 11226
Requeued flit 11226
3
2
Received nack credit for flit 11425
Requeued flit 11425
1
Received nack credit for flit 11677
Requeued flit 11677
2
Received nack credit for flit 12019
Requeued flit 12019
Received nack credit for flit 12004
Requeued flit 12004
4
3
1
5
Received nack credit for flit 12165
Requeued flit 12165
2
Received nack credit for flit 12270
Requeued flit 12270
Received nack credit for flit 12126
Requeued flit 12126
Received nack credit for flit 12512
Requeued flit 12512
1
Received nack credit for flit 12461
Requeued flit 12461
5
Received nack credit for flit 12715
Requeued flit 12715
Received nack credit for flit 12369
Requeued flit 12369
3
Received nack credit for flit 13188
Requeued flit 13188
3
Received nack credit for flit 13542
Requeued flit 13542
6
1
3
Received nack credit for flit 13334
Requeued flit 13334
Received nack credit for flit 13838
Requeued flit 13838
6
Received nack credit for flit 13674
Requeued flit 13674
Received nack credit for flit 13334
Requeued flit 13334
1
4
Received nack credit for flit 14000
Requeued flit 14000
Received nack credit for flit 14256
Requeued flit 14256
1
1
Received nack credit for flit 14526
Requeued flit 14526
Received nack credit for flit 14531
Requeued flit 14531
6
1
Received nack credit for flit 14247
Requeued flit 14247
6
4
Received nack credit for flit 14792
Requeued flit 14792
Received nack credit for flit 14634
Requeued flit 14634
Received nack credit for flit 14443
Requeued flit 14443
9
1
1
2
8
Received nack credit for flit 14316
Requeued flit 14316
1
Received nack credit for flit 15206
Requeued flit 15206
Received nack credit for flit 15268
Requeued flit 15268
Received nack credit for flit 14722
Requeued flit 14722
Received nack credit for flit 15231
Requeued flit 15231
5
Received nack credit for flit 15322
Requeued flit 15322
Received nack credit for flit 15168
Requeued flit 15168
5
Received nack credit for flit 15174
Requeued flit 15174
1
Received nack credit for flit 15874
Requeued flit 15874
2
Received nack credit for flit 16040
Requeued flit 16040
2
5
1
Received nack credit for flit 16369
Requeued flit 16369
Received nack credit for flit 16106
Requeued flit 16106
8
Received nack credit for flit 15957
Requeued flit 15957
Received nack credit for flit 16632
Requeued flit 16632
9
Received nack credit for flit 16266
Requeued flit 16266
2
4
5
7
Received nack credit for flit 17202
Requeued flit 17202
3
Received nack credit for flit 17041
Requeued flit 17041
Received nack credit for flit 17080
Requeued flit 17080
Received nack credit for flit 17177
Requeued flit 17177
Received nack credit for flit 16892
Requeued flit 16892
2
4
6
Received nack credit for flit 17504
Requeued flit 17504
Received nack credit for flit 17652
Requeued flit 17652
Received nack credit for flit 17291
Requeued flit 17291
3
Received nack credit for flit 17807
Requeued flit 17807
1
1
Received nack credit for flit 18459
Requeued flit 18459
Received nack credit for flit 18483
Requeued flit 18483
4
2
Received nack credit for flit 18957
Requeued flit 18957
Received nack credit for flit 19194
Requeued flit 19194
6
Received nack credit for flit 19162
Requeued flit 19162
4
9
10
Received nack credit for flit 19786
Requeued flit 19786
Received nack credit for flit 19439
Requeued flit 19439
Received nack credit for flit 19333
Requeued flit 19333
4
3
7
2
Received nack credit for flit 20101
Requeued flit 20101
2
Received nack credit for flit 20251
Requeued flit 20251
Received nack credit for flit 20428
Requeued flit 20428
Received nack credit for flit 19953
Requeued flit 19953
Received nack credit for flit 20474
Requeued flit 20474
1
2
Received nack credit for flit 21167
Requeued flit 21167
Received nack credit for flit 21165
Requeued flit 21165
7
1
Received nack credit for flit 21766
Requeued flit 21766
Received nack credit for flit 21232
Requeued flit 21232
4
6
Received nack credit for flit 21725
Requeued flit 21725
4
Received nack credit for flit 21692
Requeued flit 21692
Received nack credit for flit 21874
Requeued flit 21874
2
6
Received nack credit for flit 22281
Requeued flit 22281
5
3
1
Received nack credit for flit 22092
Requeued flit 22092
3
Received nack credit for flit 22574
Requeued flit 22574
Received nack credit for flit 21564
Requeued flit 21564
Received nack credit for flit 22418
Requeued flit 22418
4
Received nack credit for flit 22322
Requeued flit 22322
Received nack credit for flit 22560
Requeued flit 22560
7
Received nack credit for flit 22697
Requeued flit 22697
1
Received nack credit for flit 23785
Requeued flit 23785
6
4
Received nack credit for flit 24248
Requeued flit 24248
Received nack credit for flit 24000
Requeued flit 24000
3
3
Received nack credit for flit 24459
Requeued flit 24459
1
Received nack credit for flit 24614
Requeued flit 24614
Received nack credit for flit 24894
Requeued flit 24894
9
2
2
Received nack credit for flit 24961
Requeued flit 24961
Received nack credit for flit 24354
Requeued flit 24354
1
2
2
Received nack credit for flit 25121
Requeued flit 25121
3
Received nack credit for flit 25204
Requeued flit 25204
Received nack credit for flit 25261
Requeued flit 25261
1
Received nack credit for flit 25247
Requeued flit 25247
Received nack credit for flit 25239
Requeued flit 25239
Received nack credit for flit 25548
Requeued flit 25548
3
Received nack credit for flit 25990
Requeued flit 25990
6
4
Received nack credit for flit 26086
Requeued flit 26086
Received nack credit for flit 26151
Requeued flit 26151
1
1
1
Received nack credit for flit 26725
Requeued flit 26725
Received nack credit for flit 26779
Requeued flit 26779
7
Received nack credit for flit 26661
Requeued flit 26661
7
1
Received nack credit for flit 26914
Requeued flit 26914
5
Received nack credit for flit 27587
Requeued flit 27587
Received nack credit for flit 27385
Requeued flit 27385
1
6
Received nack credit for flit 27999
Requeued flit 27999
Received nack credit for flit 27695
Requeued flit 27695
7
3
Received nack credit for flit 27935
Requeued flit 27935
Received nack credit for flit 28322
Requeued flit 28322
9
Received nack credit for flit 28574
Requeued flit 28574
2
1
Received nack credit for flit 29862
Requeued flit 29862
5
Received nack credit for flit 30032
Requeued flit 30032
2
Received nack credit for flit 29767
Requeued flit 29767
3
Received nack credit for flit 30136
Requeued flit 30136
Received nack credit for flit 30091
Requeued flit 30091
3
1
Received nack credit for flit 30212
Requeued flit 30212
Received nack credit for flit 30420
Requeued flit 30420
3
Received nack credit for flit 30392
Requeued flit 30392
3
1
Received nack credit for flit 30574
Requeued flit 30574
1
Received nack credit for flit 30856
Requeued flit 30856
Received nack credit for flit 30812
Requeued flit 30812
1
1
1
1
Received nack credit for flit 31144
Requeued flit 31144
Received nack credit for flit 31282
Requeued flit 31282
5
Received nack credit for flit 31270
Requeued flit 31270
Received nack credit for flit 31027
Requeued flit 31027
Received nack credit for flit 31298
Requeued flit 31298
1
2
Received nack credit for flit 31695
Requeued flit 31695
Received nack credit for flit 31801
Requeued flit 31801
4
Received nack credit for flit 32148
Requeued flit 32148
5
Received nack credit for flit 32478
Requeued flit 32478
1
2
10
Received nack credit for flit 33031
Requeued flit 33031
Received nack credit for flit 33105
Requeued flit 33105
5
1
Received nack credit for flit 32326
Requeued flit 32326
3
8
Received nack credit for flit 33332
Requeued flit 33332
Received nack credit for flit 32784
Requeued flit 32784
Received nack credit for flit 33186
Requeued flit 33186
Received nack credit for flit 32995
Requeued flit 32995
3
Received nack credit for flit 34128
Requeued flit 34128
3
3
Received nack credit for flit 34479
Requeued flit 34479
Received nack credit for flit 34607
Requeued flit 34607
2
Received nack credit for flit 34962
Requeued flit 34962
3
Received nack credit for flit 35106
Requeued flit 35106
2
1
1
Received nack credit for flit 35497
Requeued flit 35497
Received nack credit for flit 35696
Requeued flit 35696
1
Received nack credit for flit 35709
Requeued flit 35709
3
Received nack credit for flit 35803
Requeued flit 35803
5
Received nack credit for flit 35726
Requeued flit 35726
Received nack credit for flit 35461
Requeued flit 35461
1
Received nack credit for flit 36673
Requeued flit 36673
3
Received nack credit for flit 36727
Requeued flit 36727
7
Received nack credit for flit 36593
Requeued flit 36593
1
Received nack credit for flit 37584
Requeued flit 37584
4
Received nack credit for flit 37367
Requeued flit 37367
4
4
7
Received nack credit for flit 37792
Requeued flit 37792
5
Received nack credit for flit 37827
Requeued flit 37827
Received nack credit for flit 37586
Requeued flit 37586
Received nack credit for flit 37926
Requeued flit 37926
3
Received nack credit for flit 38201
Requeued flit 38201
6
Received nack credit for flit 38214
Requeued flit 38214
1
Received nack credit for flit 38912
Requeued flit 38912
1
10
5
Received nack credit for flit 39132
Requeued flit 39132
1
Received nack credit for flit 38313
Requeued flit 38313
6
Received nack credit for flit 38871
Requeued flit 38871
Received nack credit for flit 38893
Requeued flit 38893
Received nack credit for flit 39300
Requeued flit 39300
1
1
Received nack credit for flit 39805
Requeued flit 39805
1
Received nack credit for flit 39874
Requeued flit 39874
3
3
Received nack credit for flit 39978
Requeued flit 39978
Received nack credit for flit 39795
Requeued flit 39795
Received nack credit for flit 39800
Requeued flit 39800
1
1
Received nack credit for flit 40191
Requeued flit 40191
Received nack credit for flit 40354
Requeued flit 40354
4
1
6
Received nack credit for flit 40440
Requeued flit 40440
3
Received nack credit for flit 40214
Requeued flit 40214
Received nack credit for flit 40654
Requeued flit 40654
Received nack credit for flit 40719
Requeued flit 40719
4
1
Received nack credit for flit 40754
Requeued flit 40754
5
Received nack credit for flit 41090
Requeued flit 41090
Received nack credit for flit 40840
Requeued flit 40840
5
4
Received nack credit for flit 40946
Requeued flit 40946
8
Received nack credit for flit 41193
Requeued flit 41193
Received nack credit for flit 41004
Requeued flit 41004
1
Received nack credit for flit 42036
Requeued flit 42036
7
1
Received nack credit for flit 41851
Requeued flit 41851
5
Received nack credit for flit 42423
Requeued flit 42423
2
Received nack credit for flit 42225
Requeued flit 42225
Received nack credit for flit 42583
Requeued flit 42583
2
4
5
Received nack credit for flit 42968
Requeued flit 42968
1
Received nack credit for flit 42923
Requeued flit 42923
Received nack credit for flit 42804
Requeued flit 42804
Received nack credit for flit 43228
Requeued flit 43228
5
Received nack credit for flit 43212
Requeued flit 43212
3
1
Received nack credit for flit 43725
Requeued flit 43725
Received nack credit for flit 43902
Requeued flit 43902
3
Received nack credit for flit 43992
Requeued flit 43992
1
5
Received nack credit for flit 44305
Requeued flit 44305
6
Received nack credit for flit 43957
Requeued flit 43957
Received nack credit for flit 43869
Requeued flit 43869
5
2
3
Received nack credit for flit 44369
Requeued flit 44369
Received nack credit for flit 44714
Requeued flit 44714
Received nack credit for flit 44678
Requeued flit 44678
1
2
Received nack credit for flit 45020
Requeued flit 45020
Received nack credit for flit 44934
Requeued flit 44934
9
14
Received nack credit for flit 44670
Requeued flit 44670
7
Received nack credit for flit 44200
Requeued flit 44200
Received nack credit for flit 44963
Requeued flit 44963
1
Received nack credit for flit 45750
Requeued flit 45750
1
5
4
Received nack credit for flit 45913
Requeued flit 45913
Received nack credit for flit 45486
Requeued flit 45486
Received nack credit for flit 45756
Requeued flit 45756
3
3
2
Received nack credit for flit 46181
Requeued flit 46181
Received nack credit for flit 46314
Requeued flit 46314
Received nack credit for flit 46389
Requeued flit 46389
1
2
Received nack credit for flit 46655
Requeued flit 46655
Received nack credit for flit 46630
Requeued flit 46630
2
1
Received nack credit for flit 46784
Requeued flit 46784
Received nack credit for flit 46885
Requeued flit 46885
4
Received nack credit for flit 46994
Requeued flit 46994
5
2
1
4
Received nack credit for flit 47336
Requeued flit 47336
Received nack credit for flit 47045
Requeued flit 47045
Received nack credit for flit 47213
Requeued flit 47213
Received nack credit for flit 47462
Requeued flit 47462
5
5
Received nack credit for flit 47460
Requeued flit 47460
Received nack credit for flit 47535
Requeued flit 47535
1
Received nack credit for flit 48089
Requeued flit 48089
7
Received nack credit for flit 47881
Requeued flit 47881
1
4
Received nack credit for flit 48615
Requeued flit 48615
4
Received nack credit for flit 48429
Requeued flit 48429
2
Received nack credit for flit 48451
Requeued flit 48451
1
Received nack credit for flit 48829
Requeued flit 48829
Received nack credit for flit 48991
Requeued flit 48991
4
1
Received nack credit for flit 49359
Requeued flit 49359
Received nack credit for flit 49749
Requeued flit 49749
3
1
1
Received nack credit for flit 49755
Requeued flit 49755
Received nack credit for flit 49882
Requeued flit 49882
Received nack credit for flit 49979
Requeued flit 49979
1
4
1
1
Received nack credit for flit 50364
Requeued flit 50364
Received nack credit for flit 50495
Requeued flit 50495
Received nack credit for flit 50263
Requeued flit 50263
Received nack credit for flit 50513
Requeued flit 50513
1
2
Received nack credit for flit 51258
Requeued flit 51258
Received nack credit for flit 51158
Requeued flit 51158
1
5
Received nack credit for flit 51477
Requeued flit 51477
1
Received nack credit for flit 51248
Requeued flit 51248
11
Received nack credit for flit 51710
Requeued flit 51710
2
Received nack credit for flit 51027
Requeued flit 51027
1
Received nack credit for flit 51870
Requeued flit 51870
9
6
5
Received nack credit for flit 51983
Requeued flit 51983
Received nack credit for flit 51615
Requeued flit 51615
Received nack credit for flit 51731
Requeued flit 51731
Received nack credit for flit 51449
Requeued flit 51449
5
8
3
Received nack credit for flit 52149
Requeued flit 52149
5
Received nack credit for flit 51859
Requeued flit 51859
Received nack credit for flit 52447
Requeued flit 52447
Received nack credit for flit 52271
Requeued flit 52271
1
3
5
4
Received nack credit for flit 52979
Requeued flit 52979
Received nack credit for flit 52837
Requeued flit 52837
Received nack credit for flit 52838
Requeued flit 52838
Received nack credit for flit 52850
Requeued flit 52850
1
6
Received nack credit for flit 53438
Requeued flit 53438
2
Received nack credit for flit 53029
Requeued flit 53029
7
5
Received nack credit for flit 53512
Requeued flit 53512
Received nack credit for flit 53333
Requeued flit 53333
Received nack credit for flit 53175
Requeued flit 53175
1
Received nack credit for flit 53965
Requeued flit 53965
2
Received nack credit for flit 54375
Requeued flit 54375
5
4
5
Received nack credit for flit 54477
Requeued flit 54477
3
Received nack credit for flit 54562
Requeued flit 54562
Received nack credit for flit 54533
Requeued flit 54533
4
Received nack credit for flit 54764
Requeued flit 54764
4
Received nack credit for flit 54826
Requeued flit 54826
Received nack credit for flit 54907
Requeued flit 54907
4
1
Received nack credit for flit 55014
Requeued flit 55014
4
Received nack credit for flit 55440
Requeued flit 55440
4
Received nack credit for flit 55191
Requeued flit 55191
5
Received nack credit for flit 55388
Requeued flit 55388
Received nack credit for flit 55366
Requeued flit 55366
2
Received nack credit for flit 56019
Requeued flit 56019
3
Received nack credit for flit 56190
Requeued flit 56190
2
Received nack credit for flit 56476
Requeued flit 56476
2
Received nack credit for flit 56578
Requeued flit 56578
2
Received nack credit for flit 56894
Requeued flit 56894
3
3
4
Received nack credit for flit 56973
Requeued flit 56973
Received nack credit for flit 56902
Requeued flit 56902
Received nack credit for flit 57077
Requeued flit 57077
4
4
2
Received nack credit for flit 57298
Requeued flit 57298
5
Received nack credit for flit 57386
Requeued flit 57386
Received nack credit for flit 57539
Requeued flit 57539
Received nack credit for flit 57368
Requeued flit 57368
2
5
Received nack credit for flit 57870
Requeued flit 57870
Received nack credit for flit 57803
Requeued flit 57803
5
Received nack credit for flit 58080
Requeued flit 58080
2
1
2
1
Received nack credit for flit 58611
Requeued flit 58611
Received nack credit for flit 58684
Requeued flit 58684
Received nack credit for flit 58657
Requeued flit 58657
Received nack credit for flit 58701
Requeued flit 58701
3
2
Received nack credit for flit 58870
Requeued flit 58870
Received nack credit for flit 58940
Requeued flit 58940
2
Received nack credit for flit 59212
Requeued flit 59212
4
2
Received nack credit for flit 59458
Requeued flit 59458
3
Received nack credit for flit 59687
Requeued flit 59687
Received nack credit for flit 59589
Requeued flit 59589
3
2
Received nack credit for flit 60113
Requeued flit 60113
Received nack credit for flit 60249
Requeued flit 60249
4
Received nack credit for flit 60575
Requeued flit 60575
2
Received nack credit for flit 60973
Requeued flit 60973
2
Received nack credit for flit 61150
Requeued flit 61150
5
2
Received nack credit for flit 61027
Requeued flit 61027
1
Received nack credit for flit 61426
Requeued flit 61426
Received nack credit for flit 61644
Requeued flit 61644
2
4
Received nack credit for flit 62141
Requeued flit 62141
Received nack credit for flit 62117
Requeued flit 62117
1
1
Received nack credit for flit 62548
Requeued flit 62548
1
Received nack credit for flit 62734
Requeued flit 62734
Received nack credit for flit 62781
Requeued flit 62781
3
3
8
Received nack credit for flit 62971
Requeued flit 62971
Received nack credit for flit 62928
Requeued flit 62928
Received nack credit for flit 62581
Requeued flit 62581
2
1
6
Received nack credit for flit 63202
Requeued flit 63202
3
Received nack credit for flit 63375
Requeued flit 63375
Received nack credit for flit 63269
Requeued flit 63269
Received nack credit for flit 63060
Requeued flit 63060
1
Received nack credit for flit 64090
Requeued flit 64090
1
3
7
Received nack credit for flit 64386
Requeued flit 64386
Received nack credit for flit 64215
Requeued flit 64215
1
Received nack credit for flit 63962
Requeued flit 63962
Received nack credit for flit 64584
Requeued flit 64584
5
1
Received nack credit for flit 64366
Requeued flit 64366
1
Received nack credit for flit 64795
Requeued flit 64795
Received nack credit for flit 64939
Requeued flit 64939
1
Received nack credit for flit 65302
Requeued flit 65302
4
3
7
Received nack credit for flit 65338
Requeued flit 65338
Received nack credit for flit 65190
Requeued flit 65190
Received nack credit for flit 65131
Requeued flit 65131
3
Received nack credit for flit 65672
Requeued flit 65672
1
1
3
Received nack credit for flit 65944
Requeued flit 65944
Received nack credit for flit 66098
Requeued flit 66098
1
Received nack credit for flit 66102
Requeued flit 66102
Received nack credit for flit 66219
Requeued flit 66219
4
1
Received nack credit for flit 66293
Requeued flit 66293
Received nack credit for flit 66655
Requeued flit 66655
10
1
Received nack credit for flit 66038
Requeued flit 66038
Received nack credit for flit 66878
Requeued flit 66878
2
1
Received nack credit for flit 66952
Requeued flit 66952
6
Received nack credit for flit 67147
Requeued flit 67147
1
Received nack credit for flit 67280
Requeued flit 67280
Received nack credit for flit 66828
Requeued flit 66828
6
Received nack credit for flit 66935
Requeued flit 66935
3
2
Received nack credit for flit 67772
Requeued flit 67772
4
Received nack credit for flit 67933
Requeued flit 67933
10
Received nack credit for flit 67820
Requeued flit 67820
Received nack credit for flit 67314
Requeued flit 67314
3
6
Received nack credit for flit 68306
Requeued flit 68306
1
8
3
Received nack credit for flit 68054
Requeued flit 68054
Received nack credit for flit 68711
Requeued flit 68711
Received nack credit for flit 67993
Requeued flit 67993
2
Received nack credit for flit 68607
Requeued flit 68607
Received nack credit for flit 68838
Requeued flit 68838
3
1
Received nack credit for flit 68974
Requeued flit 68974
4
Received nack credit for flit 69297
Requeued flit 69297
Received nack credit for flit 68890
Requeued flit 68890
1
5
5
Received nack credit for flit 69766
Requeued flit 69766
1
Received nack credit for flit 69584
Requeued flit 69584
Received nack credit for flit 69525
Requeued flit 69525
4
Received nack credit for flit 69894
Requeued flit 69894
Received nack credit for flit 70069
Requeued flit 70069
3
Received nack credit for flit 70221
Requeued flit 70221
5
Received nack credit for flit 70187
Requeued flit 70187
6
11
Received nack credit for flit 70035
Requeued flit 70035
Received nack credit for flit 69716
Requeued flit 69716
1
6
Received nack credit for flit 70916
Requeued flit 70916
Received nack credit for flit 70262
Requeued flit 70262
1
1
Received nack credit for flit 71179
Requeued flit 71179
3
Received nack credit for flit 71203
Requeued flit 71203
Received nack credit for flit 71134
Requeued flit 71134
4
Received nack credit for flit 71260
Requeued flit 71260
7
1
Received nack credit for flit 71478
Requeued flit 71478
Received nack credit for flit 72000
Requeued flit 72000
1
6
4
Received nack credit for flit 72317
Requeued flit 72317
Received nack credit for flit 72058
Requeued flit 72058
Received nack credit for flit 72121
Requeued flit 72121
3
Received nack credit for flit 72761
Requeued flit 72761
4
6
Received nack credit for flit 72758
Requeued flit 72758
Received nack credit for flit 72670
Requeued flit 72670
3
5
Received nack credit for flit 73193
Requeued flit 73193
Received nack credit for flit 73081
Requeued flit 73081
3
1
Received nack credit for flit 73726
Requeued flit 73726
2
Received nack credit for flit 74008
Requeued flit 74008
Received nack credit for flit 73987
Requeued flit 73987
4
Received nack credit for flit 74022
Requeued flit 74022
3
5
Received nack credit for flit 74362
Requeued flit 74362
7
5
4
4
Received nack credit for flit 74295
Requeued flit 74295
Received nack credit for flit 74594
Requeued flit 74594
Received nack credit for flit 74679
Requeued flit 74679
Received nack credit for flit 74280
Requeued flit 74280
Received nack credit for flit 74446
Requeued flit 74446
1
5
1
Received nack credit for flit 75324
Requeued flit 75324
2
1
Received nack credit for flit 75385
Requeued flit 75385
1
4
Received nack credit for flit 74946
Requeued flit 74946
Received nack credit for flit 75400
Requeued flit 75400
Received nack credit for flit 75513
Requeued flit 75513
Received nack credit for flit 75531
Requeued flit 75531
Received nack credit for flit 75320
Requeued flit 75320
1
Received nack credit for flit 75732
Requeued flit 75732
3
1
5
2
Received nack credit for flit 75784
Requeued flit 75784
Received nack credit for flit 75741
Requeued flit 75741
Received nack credit for flit 75961
Requeued flit 75961
2
Received nack credit for flit 76041
Requeued flit 76041
Received nack credit for flit 76145
Requeued flit 76145
2
Received nack credit for flit 76258
Requeued flit 76258
2
Received nack credit for flit 76580
Requeued flit 76580
3
1
Received nack credit for flit 76688
Requeued flit 76688
2
3
Received nack credit for flit 76896
Requeued flit 76896
Received nack credit for flit 76864
Requeued flit 76864
Received nack credit for flit 76670
Requeued flit 76670
1
4
Received nack credit for flit 77310
Requeued flit 77310
3
1
Received nack credit for flit 77188
Requeued flit 77188
1
7
Received nack credit for flit 77367
Requeued flit 77367
Received nack credit for flit 77588
Requeued flit 77588
1
Received nack credit for flit 77602
Requeued flit 77602
Received nack credit for flit 77172
Requeued flit 77172
Received nack credit for flit 77773
Requeued flit 77773
2
2
1
Received nack credit for flit 77922
Requeued flit 77922
Received nack credit for flit 77969
Requeued flit 77969
Received nack credit for flit 78108
Requeued flit 78108
1
Received nack credit for flit 78467
Requeued flit 78467
7
Received nack credit for flit 78186
Requeued flit 78186
1
Received nack credit for flit 79216
Requeued flit 79216
1
Received nack credit for flit 79586
Requeued flit 79586
4
1
Received nack credit for flit 79793
Requeued flit 79793
Received nack credit for flit 79508
Requeued flit 79508
6
4
Received nack credit for flit 79673
Requeued flit 79673
Received nack credit for flit 80126
Requeued flit 80126
1
2
6
Received nack credit for flit 80714
Requeued flit 80714
Received nack credit for flit 80580
Requeued flit 80580
Received nack credit for flit 80424
Requeued flit 80424
1
6
2
Received nack credit for flit 81029
Requeued flit 81029
Received nack credit for flit 81039
Requeued flit 81039
7
Received nack credit for flit 80643
Requeued flit 80643
1
4
Received nack credit for flit 80884
Requeued flit 80884
Received nack credit for flit 81348
Requeued flit 81348
Received nack credit for flit 81076
Requeued flit 81076
1
3
Received nack credit for flit 81672
Requeued flit 81672
Received nack credit for flit 81518
Requeued flit 81518
1
5
1
Received nack credit for flit 81858
Requeued flit 81858
1
Received nack credit for flit 81573
Requeued flit 81573
Received nack credit for flit 81943
Requeued flit 81943
Received nack credit for flit 82001
Requeued flit 82001
1
Received nack credit for flit 82415
Requeued flit 82415
5
1
1
Received nack credit for flit 82280
Requeued flit 82280
Received nack credit for flit 82801
Requeued flit 82801
Received nack credit for flit 82741
Requeued flit 82741
5
4
Received nack credit for flit 82627
Requeued flit 82627
Received nack credit for flit 82826
Requeued flit 82826
3
Received nack credit for flit 83101
Requeued flit 83101
8
2
Received nack credit for flit 83039
Requeued flit 83039
Received nack credit for flit 83678
Requeued flit 83678
1
3
5
Received nack credit for flit 84317
Requeued flit 84317
Received nack credit for flit 84104
Requeued flit 84104
1
Received nack credit for flit 83945
Requeued flit 83945
8
3
Received nack credit for flit 84453
Requeued flit 84453
3
Received nack credit for flit 83725
Requeued flit 83725
Received nack credit for flit 84464
Requeued flit 84464
5
Received nack credit for flit 84578
Requeued flit 84578
Received nack credit for flit 84497
Requeued flit 84497
5
Received nack credit for flit 84838
Requeued flit 84838
6
5
Received nack credit for flit 85079
Requeued flit 85079
12
1
Received nack credit for flit 85340
Requeued flit 85340
Received nack credit for flit 84514
Requeued flit 84514
Received nack credit for flit 85796
Requeued flit 85796
1
Received nack credit for flit 85986
Requeued flit 85986
4
1
Received nack credit for flit 85999
Requeued flit 85999
Received nack credit for flit 86276
Requeued flit 86276
1
1
Received nack credit for flit 86421
Requeued flit 86421
Received nack credit for flit 86426
Requeued flit 86426
5
4
Received nack credit for flit 86246
Requeued flit 86246
Received nack credit for flit 86402
Requeued flit 86402
1
9
Received nack credit for flit 87166
Requeued flit 87166
1
3
1
Received nack credit for flit 86470
Requeued flit 86470
Received nack credit for flit 87308
Requeued flit 87308
Received nack credit for flit 87299
Requeued flit 87299
Received nack credit for flit 87195
Requeued flit 87195
2
1
1
Received nack credit for flit 87299
Requeued flit 87299
Received nack credit for flit 87712
Requeued flit 87712
1
Received nack credit for flit 87815
Requeued flit 87815
Received nack credit for flit 87902
Requeued flit 87902
1
1
Received nack credit for flit 88332
Requeued flit 88332
Received nack credit for flit 88422
Requeued flit 88422
6
2
3
2
Received nack credit for flit 88111
Requeued flit 88111
Received nack credit for flit 88461
Requeued flit 88461
9
4
Received nack credit for flit 88629
Requeued flit 88629
Received nack credit for flit 88503
Requeued flit 88503
Received nack credit for flit 88493
Requeued flit 88493
Received nack credit for flit 88018
Requeued flit 88018
3
1
Received nack credit for flit 88811
Requeued flit 88811
1
2
Received nack credit for flit 89080
Requeued flit 89080
2
Received nack credit for flit 89208
Requeued flit 89208
Received nack credit for flit 89142
Requeued flit 89142
Received nack credit for flit 89181
Requeued flit 89181
1
Received nack credit for flit 89689
Requeued flit 89689
7
Received nack credit for flit 89252
Requeued flit 89252
3
1
Received nack credit for flit 89965
Requeued flit 89965
5
Received nack credit for flit 90417
Requeued flit 90417
Received nack credit for flit 90117
Requeued flit 90117
2
Received nack credit for flit 90838
Requeued flit 90838
1
1
9
Received nack credit for flit 91612
Requeued flit 91612
Received nack credit for flit 91662
Requeued flit 91662
Received nack credit for flit 91013
Requeued flit 91013
5
4
Received nack credit for flit 91586
Requeued flit 91586
3
Received nack credit for flit 91811
Requeued flit 91811
Received nack credit for flit 91897
Requeued flit 91897
6
3
5
5
Received nack credit for flit 92578
Requeued flit 92578
Received nack credit for flit 92055
Requeued flit 92055
Received nack credit for flit 92477
Requeued flit 92477
Received nack credit for flit 92441
Requeued flit 92441
1
Received nack credit for flit 93120
Requeued flit 93120
1
Received nack credit for flit 93278
Requeued flit 93278
5
10
Received nack credit for flit 93268
Requeued flit 93268
Received nack credit for flit 92665
Requeued flit 92665
10
3
8
2
Received nack credit for flit 92867
Requeued flit 92867
Received nack credit for flit 93658
Requeued flit 93658
Received nack credit for flit 93224
Requeued flit 93224
Received nack credit for flit 93852
Requeued flit 93852
1
1
2
Received nack credit for flit 94116
Requeued flit 94116
5
Received nack credit for flit 94108
Requeued flit 94108
Received nack credit for flit 94137
Requeued flit 94137
Received nack credit for flit 93931
Requeued flit 93931
1
6
Received nack credit for flit 94438
Requeued flit 94438
Received nack credit for flit 94083
Requeued flit 94083
2
Received nack credit for flit 94860
Requeued flit 94860
4
1
Received nack credit for flit 94790
Requeued flit 94790
2
Received nack credit for flit 95137
Requeued flit 95137
3
1
4
4
Received nack credit for flit 95106
Requeued flit 95106
Received nack credit for flit 95111
Requeued flit 95111
Received nack credit for flit 95063
Requeued flit 95063
3
Received nack credit for flit 95342
Requeued flit 95342
Received nack credit for flit 95099
Requeued flit 95099
1
Received nack credit for flit 95360
Requeued flit 95360
Received nack credit for flit 95575
Requeued flit 95575
3
1
2
2
5
Received nack credit for flit 95603
Requeued flit 95603
Received nack credit for flit 95666
Requeued flit 95666
Received nack credit for flit 95791
Requeued flit 95791
Received nack credit for flit 95573
Requeued flit 95573
Received nack credit for flit 95832
Requeued flit 95832
1
7
1
Received nack credit for flit 96312
Requeued flit 96312
Received nack credit for flit 95715
Requeued flit 95715
Received nack credit for flit 96381
Requeued flit 96381
2
6
Received nack credit for flit 96248
Requeued flit 96248
Received nack credit for flit 95964
Requeued flit 95964
2
Received nack credit for flit 96815
Requeued flit 96815
2
7
Received nack credit for flit 97276
Requeued flit 97276
Received nack credit for flit 96833
Requeued flit 96833
1
5
Received nack credit for flit 97674
Requeued flit 97674
Received nack credit for flit 97418
Requeued flit 97418
9
2
1
Received nack credit for flit 97358
Requeued flit 97358
Received nack credit for flit 97977
Requeued flit 97977
Received nack credit for flit 98115
Requeued flit 98115
5
6
1
2
4
1
Received nack credit for flit 98192
Requeued flit 98192
Received nack credit for flit 98011
Requeued flit 98011
Received nack credit for flit 98578
Requeued flit 98578
3
Received nack credit for flit 98464
Requeued flit 98464
Received nack credit for flit 98321
Requeued flit 98321
Received nack credit for flit 98627
Requeued flit 98627
1
Received nack credit for flit 98433
Requeued flit 98433
Received nack credit for flit 98785
Requeued flit 98785
4
Received nack credit for flit 98997
Requeued flit 98997
1
6
1
Received nack credit for flit 99490
Requeued flit 99490
6
Received nack credit for flit 99112
Requeued flit 99112
5
Received nack credit for flit 99599
Requeued flit 99599
5
Received nack credit for flit 99175
Requeued flit 99175
Received nack credit for flit 99323
Requeued flit 99323
Received nack credit for flit 99462
Requeued flit 99462
1
1
Received nack credit for flit 99969
Requeued flit 99969
8
Received nack credit for flit 100023
Requeued flit 100023
4
Received nack credit for flit 99187
Requeued flit 99187
Received nack credit for flit 99980
Requeued flit 99980
4
Received nack credit for flit 100392
Requeued flit 100392
2
Received nack credit for flit 100707
Requeued flit 100707
12
Received nack credit for flit 100481
Requeued flit 100481
1
1
1
Received nack credit for flit 101711
Requeued flit 101711
Received nack credit for flit 101789
Requeued flit 101789
Received nack credit for flit 101794
Requeued flit 101794
4
7
Received nack credit for flit 101824
Requeued flit 101824
3
Received nack credit for flit 101532
Requeued flit 101532
Received nack credit for flit 102095
Requeued flit 102095
3
4
Received nack credit for flit 102209
Requeued flit 102209
3
Received nack credit for flit 102287
Requeued flit 102287
Received nack credit for flit 102264
Requeued flit 102264
3
Received nack credit for flit 103129
Requeued flit 103129
3
2
3
Received nack credit for flit 103475
Requeued flit 103475
Received nack credit for flit 103623
Requeued flit 103623
Received nack credit for flit 103591
Requeued flit 103591
1
Received nack credit for flit 104060
Requeued flit 104060
1
4
4
1
Received nack credit for flit 103855
Requeued flit 103855
Received nack credit for flit 104253
Requeued flit 104253
Received nack credit for flit 103869
Requeued flit 103869
Received nack credit for flit 104289
Requeued flit 104289
3
2
Received nack credit for flit 104474
Requeued flit 104474
Received nack credit for flit 104621
Requeued flit 104621
1
1
Received nack credit for flit 104856
Requeued flit 104856
Received nack credit for flit 104927
Requeued flit 104927
4
Received nack credit for flit 104855
Requeued flit 104855
3
9
Received nack credit for flit 105055
Requeued flit 105055
Received nack credit for flit 104416
Requeued flit 104416
3
3
Received nack credit for flit 105318
Requeued flit 105318
1
4
Received nack credit for flit 105376
Requeued flit 105376
Received nack credit for flit 105621
Requeued flit 105621
4
Received nack credit for flit 105403
Requeued flit 105403
2
3
Received nack credit for flit 105812
Requeued flit 105812
Received nack credit for flit 105696
Requeued flit 105696
Received nack credit for flit 105592
Requeued flit 105592
9
Received nack credit for flit 105679
Requeued flit 105679
2
Received nack credit for flit 106706
Requeued flit 106706
6
Received nack credit for flit 106536
Requeued flit 106536
9
1
7
8
Received nack credit for flit 107331
Requeued flit 107331
5
Received nack credit for flit 106538
Requeued flit 106538
Received nack credit for flit 106844
Requeued flit 106844
Received nack credit for flit 106781
Requeued flit 106781
Received nack credit for flit 107130
Requeued flit 107130
5
4
4
Received nack credit for flit 107505
Requeued flit 107505
Received nack credit for flit 107589
Requeued flit 107589
Received nack credit for flit 107653
Requeued flit 107653
3
1
2
Received nack credit for flit 107924
Requeued flit 107924
Received nack credit for flit 108160
Requeued flit 108160
Received nack credit for flit 108209
Requeued flit 108209
2
4
Received nack credit for flit 108176
Requeued flit 108176
Received nack credit for flit 108356
Requeued flit 108356
1
Received nack credit for flit 108859
Requeued flit 108859
1
Received nack credit for flit 109022
Requeued flit 109022
4
5
Received nack credit for flit 108989
Requeued flit 108989
Received nack credit for flit 108868
Requeued flit 108868
1
Received nack credit for flit 110020
Requeued flit 110020
2
8
1
3
Received nack credit for flit 110290
Requeued flit 110290
Received nack credit for flit 110467
Requeued flit 110467
Received nack credit for flit 109843
Requeued flit 109843
6
Received nack credit for flit 110322
Requeued flit 110322
Received nack credit for flit 110131
Requeued flit 110131
5
1
1
1
1
Received nack credit for flit 110701
Requeued flit 110701
Received nack credit for flit 111180
Requeued flit 111180
Received nack credit for flit 111186
Requeued flit 111186
Received nack credit for flit 111233
Requeued flit 111233
Received nack credit for flit 111252
Requeued flit 111252
7
2
Received nack credit for flit 110701
Requeued flit 110701
1
1
Received nack credit for flit 111526
Requeued flit 111526
5
Received nack credit for flit 111720
Requeued flit 111720
Received nack credit for flit 111794
Requeued flit 111794
Received nack credit for flit 111552
Requeued flit 111552
2
1
Received nack credit for flit 111985
Requeued flit 111985
1
Received nack credit for flit 112242
Requeued flit 112242
Received nack credit for flit 112367
Requeued flit 112367
1
Received nack credit for flit 112753
Requeued flit 112753
4
6
1
Received nack credit for flit 112679
Requeued flit 112679
Received nack credit for flit 112585
Requeued flit 112585
Received nack credit for flit 112991
Requeued flit 112991
8
5
Received nack credit for flit 112724
Requeued flit 112724
Received nack credit for flit 112947
Requeued flit 112947
2
2
3
Received nack credit for flit 113383
Requeued flit 113383
Received nack credit for flit 113414
Requeued flit 113414
Received nack credit for flit 113394
Requeued flit 113394
4
Received nack credit for flit 113311
Requeued flit 113311
6
Received nack credit for flit 113502
Requeued flit 113502
7
1
1
Received nack credit for flit 113311
Requeued flit 113311
Received nack credit for flit 114355
Requeued flit 114355
Received nack credit for flit 114406
Requeued flit 114406
3
Received nack credit for flit 114622
Requeued flit 114622
8
6
Received nack credit for flit 114388
Requeued flit 114388
Received nack credit for flit 114744
Requeued flit 114744
6
1
Received nack credit for flit 114840
Requeued flit 114840
1
Received nack credit for flit 115406
Requeued flit 115406
Received nack credit for flit 115465
Requeued flit 115465
2
1
4
Received nack credit for flit 115694
Requeued flit 115694
Received nack credit for flit 115551
Requeued flit 115551
Received nack credit for flit 115536
Requeued flit 115536
2
4
Received nack credit for flit 116088
Requeued flit 116088
5
Received nack credit for flit 116038
Requeued flit 116038
Received nack credit for flit 115872
Requeued flit 115872
1
Received nack credit for flit 116307
Requeued flit 116307
1
1
5
Received nack credit for flit 116447
Requeued flit 116447
Received nack credit for flit 116703
Requeued flit 116703
Received nack credit for flit 116793
Requeued flit 116793
4
Received nack credit for flit 116797
Requeued flit 116797
2
1
6
Received nack credit for flit 117187
Requeued flit 117187
Received nack credit for flit 117293
Requeued flit 117293
2
1
Received nack credit for flit 117365
Requeued flit 117365
Received nack credit for flit 116995
Requeued flit 116995
Received nack credit for flit 117525
Requeued flit 117525
3
7
Received nack credit for flit 117465
Requeued flit 117465
Received nack credit for flit 117233
Requeued flit 117233
3
1
Received nack credit for flit 117839
Requeued flit 117839
Received nack credit for flit 118086
Requeued flit 118086
2
3
Received nack credit for flit 118471
Requeued flit 118471
Received nack credit for flit 118550
Requeued flit 118550
4
1
3
Received nack credit for flit 118934
Requeued flit 118934
Received nack credit for flit 119215
Requeued flit 119215
Received nack credit for flit 119109
Requeued flit 119109
5
1
3
Received nack credit for flit 119048
Requeued flit 119048
Received nack credit for flit 119473
Requeued flit 119473
2
1
Received nack credit for flit 119475
Requeued flit 119475
Received nack credit for flit 119325
Requeued flit 119325
1
Received nack credit for flit 119710
Requeued flit 119710
6
Received nack credit for flit 119850
Requeued flit 119850
Received nack credit for flit 119426
Requeued flit 119426
5
5
Received nack credit for flit 119956
Requeued flit 119956
Received nack credit for flit 120027
Requeued flit 120027
8
2
Received nack credit for flit 120451
Requeued flit 120451
Received nack credit for flit 119967
Requeued flit 119967
1
Received nack credit for flit 120925
Requeued flit 120925
5
Received nack credit for flit 120786
Requeued flit 120786
2
Received nack credit for flit 121624
Requeued flit 121624
3
Received nack credit for flit 121758
Requeued flit 121758
1
Received nack credit for flit 122141
Requeued flit 122141
6
2
Received nack credit for flit 122376
Requeued flit 122376
Received nack credit for flit 121855
Requeued flit 121855
1
11
Received nack credit for flit 122967
Requeued flit 122967
Received nack credit for flit 122003
Requeued flit 122003
3
Received nack credit for flit 122990
Requeued flit 122990
8
10
Received nack credit for flit 122644
Requeued flit 122644
Received nack credit for flit 122691
Requeued flit 122691
1
6
Received nack credit for flit 123882
Requeued flit 123882
Received nack credit for flit 123512
Requeued flit 123512
3
Received nack credit for flit 123825
Requeued flit 123825
5
Received nack credit for flit 123852
Requeued flit 123852
1
5
Received nack credit for flit 124710
Requeued flit 124710
Received nack credit for flit 124437
Requeued flit 124437
7
Received nack credit for flit 124602
Requeued flit 124602
10
Received nack credit for flit 124662
Requeued flit 124662
10
Received nack credit for flit 124825
Requeued flit 124825
6
Received nack credit for flit 125346
Requeued flit 125346
5
Received nack credit for flit 125562
Requeued flit 125562
1
Received nack credit for flit 126194
Requeued flit 126194
1
4
5
5
Received nack credit for flit 126460
Requeued flit 126460
Received nack credit for flit 126305
Requeued flit 126305
Received nack credit for flit 126300
Requeued flit 126300
Received nack credit for flit 126291
Requeued flit 126291
3
Received nack credit for flit 126713
Requeued flit 126713
6
9
Received nack credit for flit 127347
Requeued flit 127347
5
Received nack credit for flit 127122
Requeued flit 127122
Received nack credit for flit 127652
Requeued flit 127652
4
9
1
2
Received nack credit for flit 127490
Requeued flit 127490
Received nack credit for flit 128049
Requeued flit 128049
Received nack credit for flit 128405
Requeued flit 128405
6
4
Received nack credit for flit 128372
Requeued flit 128372
Received nack credit for flit 128375
Requeued flit 128375
Received nack credit for flit 128159
Requeued flit 128159
1
Received nack credit for flit 128807
Requeued flit 128807
2
Received nack credit for flit 128889
Requeued flit 128889
3
3
Received nack credit for flit 128942
Requeued flit 128942
Received nack credit for flit 128964
Requeued flit 128964
2
2
3
Received nack credit for flit 129274
Requeued flit 129274
6
Received nack credit for flit 129264
Requeued flit 129264
Received nack credit for flit 129333
Requeued flit 129333
5
3
Received nack credit for flit 129024
Requeued flit 129024
1
Received nack credit for flit 129290
Requeued flit 129290
Received nack credit for flit 129764
Requeued flit 129764
2
Received nack credit for flit 129429
Requeued flit 129429
Received nack credit for flit 129736
Requeued flit 129736
6
6
Received nack credit for flit 129700
Requeued flit 129700
Received nack credit for flit 129664
Requeued flit 129664
3
5
Received nack credit for flit 130160
Requeued flit 130160
Received nack credit for flit 130097
Requeued flit 130097
1
4
Received nack credit for flit 131060
Requeued flit 131060
Received nack credit for flit 130833
Requeued flit 130833
2
Received nack credit for flit 131245
Requeued flit 131245
3
8
1
Received nack credit for flit 131032
Requeued flit 131032
1
Received nack credit for flit 131813
Requeued flit 131813
Received nack credit for flit 131582
Requeued flit 131582
Received nack credit for flit 131929
Requeued flit 131929
1
Received nack credit for flit 132047
Requeued flit 132047
3
1
Received nack credit for flit 131896
Requeued flit 131896
Received nack credit for flit 132322
Requeued flit 132322
2
1
Received nack credit for flit 132715
Requeued flit 132715
Received nack credit for flit 132549
Requeued flit 132549
2
Received nack credit for flit 132876
Requeued flit 132876
1
Received nack credit for flit 133342
Requeued flit 133342
2
Received nack credit for flit 133557
Requeued flit 133557
6
Received nack credit for flit 133438
Requeued flit 133438
1
Received nack credit for flit 134140
Requeued flit 134140
3
Received nack credit for flit 134234
Requeued flit 134234
2
Received nack credit for flit 134662
Requeued flit 134662
4
Received nack credit for flit 134843
Requeued flit 134843
7
4
Received nack credit for flit 134817
Requeued flit 134817
Received nack credit for flit 135277
Requeued flit 135277
2
7
Received nack credit for flit 136004
Requeued flit 136004
1
Received nack credit for flit 135635
Requeued flit 135635
Received nack credit for flit 136271
Requeued flit 136271
1
1
Received nack credit for flit 136693
Requeued flit 136693
Received nack credit for flit 136659
Requeued flit 136659
2
Received nack credit for flit 136793
Requeued flit 136793
9
5
Received nack credit for flit 136316
Requeued flit 136316
Received nack credit for flit 136779
Requeued flit 136779
4
Received nack credit for flit 137002
Requeued flit 137002
3
1
Received nack credit for flit 137329
Requeued flit 137329
Received nack credit for flit 137612
Requeued flit 137612
3
5
1
Received nack credit for flit 137534
Requeued flit 137534
1
Received nack credit for flit 137687
Requeued flit 137687
1
Received nack credit for flit 138060
Requeued flit 138060
Received nack credit for flit 138081
Requeued flit 138081
1
Received nack credit for flit 138183
Requeued flit 138183
Received nack credit for flit 138287
Requeued flit 138287
1
Received nack credit for flit 138588
Requeued flit 138588
1
2
4
Received nack credit for flit 138779
Requeued flit 138779
Received nack credit for flit 138831
Requeued flit 138831
Received nack credit for flit 138682
Requeued flit 138682
6
1
Received nack credit for flit 138729
Requeued flit 138729
2
Received nack credit for flit 139312
Requeued flit 139312
Received nack credit for flit 139269
Requeued flit 139269
1
Received nack credit for flit 139608
Requeued flit 139608
1
1
1
Received nack credit for flit 139648
Requeued flit 139648
3
Received nack credit for flit 139751
Requeued flit 139751
Received nack credit for flit 139747
Requeued flit 139747
Received nack credit for flit 139739
Requeued flit 139739
2
1
Received nack credit for flit 140047
Requeued flit 140047
Received nack credit for flit 140185
Requeued flit 140185
3
1
Received nack credit for flit 140178
Requeued flit 140178
Received nack credit for flit 140573
Requeued flit 140573
7
Received nack credit for flit 140680
Requeued flit 140680
2
3
2
Received nack credit for flit 141253
Requeued flit 141253
Received nack credit for flit 141230
Requeued flit 141230
Received nack credit for flit 141364
Requeued flit 141364
4
Received nack credit for flit 141226
Requeued flit 141226
7
Received nack credit for flit 141446
Requeued flit 141446
3
1
Received nack credit for flit 142243
Requeued flit 142243
3
Received nack credit for flit 142555
Requeued flit 142555
2
7
Received nack credit for flit 142477
Requeued flit 142477
Received nack credit for flit 142548
Requeued flit 142548
Received nack credit for flit 142177
Requeued flit 142177
3
2
Received nack credit for flit 142911
Requeued flit 142911
Received nack credit for flit 142995
Requeued flit 142995
1
7
Received nack credit for flit 142754
Requeued flit 142754
Received nack credit for flit 143238
Requeued flit 143238
1
Received nack credit for flit 143440
Requeued flit 143440
8
1
4
Received nack credit for flit 143225
Requeued flit 143225
Received nack credit for flit 143935
Requeued flit 143935
3
Received nack credit for flit 143774
Requeued flit 143774
3
Received nack credit for flit 143971
Requeued flit 143971
5
Received nack credit for flit 144045
Requeued flit 144045
3
2
Received nack credit for flit 144019
Requeued flit 144019
Received nack credit for flit 144269
Requeued flit 144269
Received nack credit for flit 144357
Requeued flit 144357
1
4
Received nack credit for flit 144689
Requeued flit 144689
Received nack credit for flit 144502
Requeued flit 144502
2
1
Received nack credit for flit 144700
Requeued flit 144700
Received nack credit for flit 144901
Requeued flit 144901
1
Received nack credit for flit 145363
Requeued flit 145363
6
Received nack credit for flit 145125
Requeued flit 145125
1
4
Received nack credit for flit 145930
Requeued flit 145930
9
Received nack credit for flit 145733
Requeued flit 145733
4
1
Received nack credit for flit 145494
Requeued flit 145494
Received nack credit for flit 146012
Requeued flit 146012
Received nack credit for flit 146255
Requeued flit 146255
5
6
Received nack credit for flit 146109
Requeued flit 146109
4
Received nack credit for flit 146144
Requeued flit 146144
Received nack credit for flit 146452
Requeued flit 146452
6
1
1
Received nack credit for flit 146417
Requeued flit 146417
Received nack credit for flit 146924
Requeued flit 146924
3
1
Received nack credit for flit 147043
Requeued flit 147043
Received nack credit for flit 146954
Requeued flit 146954
8
Received nack credit for flit 147156
Requeued flit 147156
2
4
Received nack credit for flit 146731
Requeued flit 146731
Received nack credit for flit 147313
Requeued flit 147313
Received nack credit for flit 147184
Requeued flit 147184
1
2
Received nack credit for flit 148391
Requeued flit 148391
1
Received nack credit for flit 148405
Requeued flit 148405
1
2
Received nack credit for flit 148599
Requeued flit 148599
Received nack credit for flit 148650
Requeued flit 148650
Received nack credit for flit 148635
Requeued flit 148635
5
1
Received nack credit for flit 148743
Requeued flit 148743
Received nack credit for flit 149230
Requeued flit 149230
8
Received nack credit for flit 149160
Requeued flit 149160
4
Received nack credit for flit 150011
Requeued flit 150011
4
1
Received nack credit for flit 150399
Requeued flit 150399
Received nack credit for flit 150721
Requeued flit 150721
9
6
Received nack credit for flit 150284
Requeued flit 150284
3
Received nack credit for flit 150500
Requeued flit 150500
Received nack credit for flit 150978
Requeued flit 150978
4
9
Received nack credit for flit 151109
Requeued flit 151109
1
Received nack credit for flit 150825
Requeued flit 150825
Received nack credit for flit 151595
Requeued flit 151595
1
1
3
Received nack credit for flit 151743
Requeued flit 151743
Received nack credit for flit 151635
Requeued flit 151635
Received nack credit for flit 151745
Requeued flit 151745
5
Received nack credit for flit 151880
Requeued flit 151880
3
4
Received nack credit for flit 152540
Requeued flit 152540
Received nack credit for flit 152507
Requeued flit 152507
1
Received nack credit for flit 152981
Requeued flit 152981
2
6
Received nack credit for flit 153131
Requeued flit 153131
Received nack credit for flit 152883
Requeued flit 152883
1
6
Received nack credit for flit 153464
Requeued flit 153464
Received nack credit for flit 153050
Requeued flit 153050
5
8
6
Received nack credit for flit 154029
Requeued flit 154029
Received nack credit for flit 153735
Requeued flit 153735
1
2
Received nack credit for flit 154247
Requeued flit 154247
Received nack credit for flit 154616
Requeued flit 154616
Received nack credit for flit 154672
Requeued flit 154672
3
2
5
6
Received nack credit for flit 154641
Requeued flit 154641
1
7
Received nack credit for flit 154805
Requeued flit 154805
Received nack credit for flit 154397
Requeued flit 154397
Received nack credit for flit 154560
Requeued flit 154560
8
Received nack credit for flit 155077
Requeued flit 155077
3
5
Received nack credit for flit 154448
Requeued flit 154448
4
Received nack credit for flit 154491
Requeued flit 154491
Received nack credit for flit 155044
Requeued flit 155044
Received nack credit for flit 154881
Requeued flit 154881
Received nack credit for flit 155008
Requeued flit 155008
1
Received nack credit for flit 155653
Requeued flit 155653
5
Received nack credit for flit 155517
Requeued flit 155517
4
Received nack credit for flit 155756
Requeued flit 155756
2
Received nack credit for flit 156299
Requeued flit 156299
1
1
2
6
Received nack credit for flit 156589
Requeued flit 156589
Received nack credit for flit 156611
Requeued flit 156611
4
Received nack credit for flit 156523
Requeued flit 156523
Received nack credit for flit 156216
Requeued flit 156216
7
Received nack credit for flit 156527
Requeued flit 156527
Received nack credit for flit 156215
Requeued flit 156215
6
1
Received nack credit for flit 156346
Requeued flit 156346
Received nack credit for flit 157147
Requeued flit 157147
2
Received nack credit for flit 157335
Requeued flit 157335
1
1
Received nack credit for flit 157789
Requeued flit 157789
10
Received nack credit for flit 157806
Requeued flit 157806
Received nack credit for flit 156992
Requeued flit 156992
1
4
2
Received nack credit for flit 158240
Requeued flit 158240
Received nack credit for flit 157928
Requeued flit 157928
2
Received nack credit for flit 158303
Requeued flit 158303
2
4
Received nack credit for flit 158469
Requeued flit 158469
5
Received nack credit for flit 158479
Requeued flit 158479
Received nack credit for flit 158338
Requeued flit 158338
Received nack credit for flit 158309
Requeued flit 158309
1
2
Received nack credit for flit 159177
Requeued flit 159177
4
Received nack credit for flit 159121
Requeued flit 159121
Received nack credit for flit 159097
Requeued flit 159097
5
2
Received nack credit for flit 159409
Requeued flit 159409
2
Received nack credit for flit 159745
Requeued flit 159745
Received nack credit for flit 159843
Requeued flit 159843
5
5
7
Received nack credit for flit 159768
Requeued flit 159768
Received nack credit for flit 159724
Requeued flit 159724
Received nack credit for flit 159545
Requeued flit 159545
9
1
Received nack credit for flit 159472
Requeued flit 159472
Received nack credit for flit 160421
Requeued flit 160421
5
7
Received nack credit for flit 160200
Requeued flit 160200
1
4
Received nack credit for flit 160186
Requeued flit 160186
2
2
3
Received nack credit for flit 160780
Requeued flit 160780
Received nack credit for flit 160438
Requeued flit 160438
Received nack credit for flit 160758
Requeued flit 160758
Received nack credit for flit 160806
Requeued flit 160806
11
Received nack credit for flit 160699
Requeued flit 160699
1
Received nack credit for flit 160135
Requeued flit 160135
Received nack credit for flit 161122
Requeued flit 161122
6
7
Received nack credit for flit 161112
Requeued flit 161112
Received nack credit for flit 161120
Requeued flit 161120
4
Received nack credit for flit 161576
Requeued flit 161576
2
1
Received nack credit for flit 161979
Requeued flit 161979
1
1
10
Received nack credit for flit 162173
Requeued flit 162173
Received nack credit for flit 162323
Requeued flit 162323
Received nack credit for flit 162467
Requeued flit 162467
Received nack credit for flit 161329
Requeued flit 161329
7
Received nack credit for flit 162368
Requeued flit 162368
1
Received nack credit for flit 163116
Requeued flit 163116
1
3
Received nack credit for flit 163360
Requeued flit 163360
Received nack credit for flit 163214
Requeued flit 163214
4
6
2
Received nack credit for flit 163425
Requeued flit 163425
Received nack credit for flit 163277
Requeued flit 163277
Received nack credit for flit 163692
Requeued flit 163692
3
Received nack credit for flit 164399
Requeued flit 164399
2
2
Received nack credit for flit 164821
Requeued flit 164821
1
Received nack credit for flit 164973
Requeued flit 164973
Received nack credit for flit 164924
Requeued flit 164924
7
1
6
1
Received nack credit for flit 164805
Requeued flit 164805
Received nack credit for flit 165419
Requeued flit 165419
Received nack credit for flit 164928
Requeued flit 164928
Received nack credit for flit 165482
Requeued flit 165482
1
Received nack credit for flit 165656
Requeued flit 165656
5
2
5
3
3
Received nack credit for flit 165585
Requeued flit 165585
Received nack credit for flit 165844
Requeued flit 165844
Received nack credit for flit 165696
Requeued flit 165696
Received nack credit for flit 165624
Requeued flit 165624
Received nack credit for flit 165786
Requeued flit 165786
5
Received nack credit for flit 165900
Requeued flit 165900
2
Received nack credit for flit 166682
Requeued flit 166682
2
Received nack credit for flit 166847
Requeued flit 166847
1
4
Received nack credit for flit 167118
Requeued flit 167118
4
1
Received nack credit for flit 166970
Requeued flit 166970
Received nack credit for flit 166921
Requeued flit 166921
Received nack credit for flit 167296
Requeued flit 167296
5
4
Received nack credit for flit 167246
Requeued flit 167246
Received nack credit for flit 167410
Requeued flit 167410
8
Received nack credit for flit 167381
Requeued flit 167381
6
3
Received nack credit for flit 167864
Requeued flit 167864
Received nack credit for flit 168147
Requeued flit 168147
1
Received nack credit for flit 168551
Requeued flit 168551
1
Received nack credit for flit 168682
Requeued flit 168682
4
1
5
Received nack credit for flit 168644
Requeued flit 168644
Received nack credit for flit 168991
Requeued flit 168991
1
Received nack credit for flit 169111
Requeued flit 169111
Received nack credit for flit 168632
Requeued flit 168632
4
1
Received nack credit for flit 169134
Requeued flit 169134
4
Received nack credit for flit 169485
Requeued flit 169485
Received nack credit for flit 169349
Requeued flit 169349
1
2
Received nack credit for flit 169750
Requeued flit 169750
2
3
Received nack credit for flit 169812
Requeued flit 169812
4
4
Received nack credit for flit 169822
Requeued flit 169822
Received nack credit for flit 169807
Requeued flit 169807
Received nack credit for flit 169720
Requeued flit 169720
Received nack credit for flit 169837
Requeued flit 169837
6
6
Received nack credit for flit 169714
Requeued flit 169714
Received nack credit for flit 169880
Requeued flit 169880
1
1
Received nack credit for flit 170800
Requeued flit 170800
1
Received nack credit for flit 170844
Requeued flit 170844
1
Received nack credit for flit 170948
Requeued flit 170948
Received nack credit for flit 171029
Requeued flit 171029
6
4
1
Received nack credit for flit 170766
Requeued flit 170766
Received nack credit for flit 171062
Requeued flit 171062
Received nack credit for flit 171392
Requeued flit 171392
6
5
Received nack credit for flit 171209
Requeued flit 171209
8
Received nack credit for flit 171450
Requeued flit 171450
Received nack credit for flit 171358
Requeued flit 171358
9
1
Received nack credit for flit 171274
Requeued flit 171274
Received nack credit for flit 172318
Requeued flit 172318
7
3
1
Received nack credit for flit 172111
Requeued flit 172111
Received nack credit for flit 172481
Requeued flit 172481
Received nack credit for flit 172680
Requeued flit 172680
2
2
Received nack credit for flit 173153
Requeued flit 173153
4
Received nack credit for flit 173159
Requeued flit 173159
1
Received nack credit for flit 173141
Requeued flit 173141
Received nack credit for flit 173537
Requeued flit 173537
2
1
Received nack credit for flit 173800
Requeued flit 173800
1
Received nack credit for flit 174021
Requeued flit 174021
Received nack credit for flit 174013
Requeued flit 174013
7
Received nack credit for flit 173602
Requeued flit 173602
7
4
Received nack credit for flit 174300
Requeued flit 174300
6
Received nack credit for flit 173987
Requeued flit 173987
1
Received nack credit for flit 174209
Requeued flit 174209
Received nack credit for flit 174854
Requeued flit 174854
2
Received nack credit for flit 174837
Requeued flit 174837
1
2
Received nack credit for flit 175262
Requeued flit 175262
1
Received nack credit for flit 175330
Requeued flit 175330
Received nack credit for flit 175468
Requeued flit 175468
1
Received nack credit for flit 175681
Requeued flit 175681
3
4
Received nack credit for flit 175568
Requeued flit 175568
Received nack credit for flit 175656
Requeued flit 175656
1
1
2
10
Received nack credit for flit 176129
Requeued flit 176129
4
1
Received nack credit for flit 176107
Requeued flit 176107
Received nack credit for flit 176168
Requeued flit 176168
Received nack credit for flit 175443
Requeued flit 175443
Received nack credit for flit 176316
Requeued flit 176316
Received nack credit for flit 176108
Requeued flit 176108
4
7
Received nack credit for flit 176134
Requeued flit 176134
Received nack credit for flit 176413
Requeued flit 176413
1
7
4
7
Received nack credit for flit 176980
Requeued flit 176980
Received nack credit for flit 176631
Requeued flit 176631
Received nack credit for flit 176694
Requeued flit 176694
Received nack credit for flit 176985
Requeued flit 176985
1
Received nack credit for flit 177427
Requeued flit 177427
3
Received nack credit for flit 177416
Requeued flit 177416
5
7
Received nack credit for flit 177439
Requeued flit 177439
2
Received nack credit for flit 177404
Requeued flit 177404
Received nack credit for flit 177918
Requeued flit 177918
7
7
Received nack credit for flit 177790
Requeued flit 177790
Received nack credit for flit 177953
Requeued flit 177953
1
1
3
Received nack credit for flit 178824
Requeued flit 178824
3
Received nack credit for flit 178832
Requeued flit 178832
Received nack credit for flit 178668
Requeued flit 178668
3
Received nack credit for flit 178844
Requeued flit 178844
Received nack credit for flit 178776
Requeued flit 178776
1
2
Received nack credit for flit 179249
Requeued flit 179249
Received nack credit for flit 179252
Requeued flit 179252
9
Received nack credit for flit 179099
Requeued flit 179099
2
3
1
7
Received nack credit for flit 180038
Requeued flit 180038
Received nack credit for flit 180287
Requeued flit 180287
Received nack credit for flit 180102
Requeued flit 180102
Received nack credit for flit 179765
Requeued flit 179765
1
4
Received nack credit for flit 180595
Requeued flit 180595
1
1
1
2
Received nack credit for flit 180468
Requeued flit 180468
4
Received nack credit for flit 180769
Requeued flit 180769
Received nack credit for flit 180791
Requeued flit 180791
Received nack credit for flit 180747
Requeued flit 180747
Received nack credit for flit 180590
Requeued flit 180590
Received nack credit for flit 180795
Requeued flit 180795
5
Received nack credit for flit 181140
Requeued flit 181140
1
Received nack credit for flit 181760
Requeued flit 181760
1
1
2
Received nack credit for flit 182087
Requeued flit 182087
Received nack credit for flit 182180
Requeued flit 182180
Received nack credit for flit 182104
Requeued flit 182104
5
Received nack credit for flit 182173
Requeued flit 182173
8
1
Received nack credit for flit 182186
Requeued flit 182186
Received nack credit for flit 182952
Requeued flit 182952
3
2
Received nack credit for flit 182897
Requeued flit 182897
Received nack credit for flit 183091
Requeued flit 183091
1
3
2
1
1
Received nack credit for flit 183492
Requeued flit 183492
Received nack credit for flit 183326
Requeued flit 183326
2
Received nack credit for flit 183534
Requeued flit 183534
Received nack credit for flit 183574
Requeued flit 183574
Received nack credit for flit 183441
Requeued flit 183441
Received nack credit for flit 183598
Requeued flit 183598
1
Received nack credit for flit 184009
Requeued flit 184009
2
4
Received nack credit for flit 184233
Requeued flit 184233
Received nack credit for flit 184214
Requeued flit 184214
6
Received nack credit for flit 184212
Requeued flit 184212
4
1
Received nack credit for flit 184844
Requeued flit 184844
Received nack credit for flit 185120
Requeued flit 185120
1
2
2
2
Received nack credit for flit 185299
Requeued flit 185299
Received nack credit for flit 185259
Requeued flit 185259
Received nack credit for flit 185263
Requeued flit 185263
Received nack credit for flit 185333
Requeued flit 185333
10
9
1
Received nack credit for flit 185380
Requeued flit 185380
Received nack credit for flit 185049
Requeued flit 185049
Received nack credit for flit 186164
Requeued flit 186164
2
1
4
4
Received nack credit for flit 186326
Requeued flit 186326
Received nack credit for flit 186430
Requeued flit 186430
Received nack credit for flit 186200
Requeued flit 186200
Received nack credit for flit 186056
Requeued flit 186056
5
3
4
Received nack credit for flit 186315
Requeued flit 186315
Received nack credit for flit 186524
Requeued flit 186524
Received nack credit for flit 186564
Requeued flit 186564
1
Received nack credit for flit 187147
Requeued flit 187147
1
4
2
Received nack credit for flit 187139
Requeued flit 187139
Received nack credit for flit 187469
Requeued flit 187469
6
Received nack credit for flit 187465
Requeued flit 187465
1
Received nack credit for flit 187321
Requeued flit 187321
1
1
Received nack credit for flit 187955
Requeued flit 187955
Received nack credit for flit 188006
Requeued flit 188006
Received nack credit for flit 188027
Requeued flit 188027
4
Received nack credit for flit 188080
Requeued flit 188080
1
4
Received nack credit for flit 188520
Requeued flit 188520
3
2
Received nack credit for flit 188333
Requeued flit 188333
Received nack credit for flit 188565
Requeued flit 188565
Received nack credit for flit 188659
Requeued flit 188659
7
5
Received nack credit for flit 188253
Requeued flit 188253
Received nack credit for flit 188539
Requeued flit 188539
9
1
5
Received nack credit for flit 189031
Requeued flit 189031
Received nack credit for flit 188277
Requeued flit 188277
Received nack credit for flit 188599
Requeued flit 188599
10
Received nack credit for flit 188540
Requeued flit 188540
4
6
Received nack credit for flit 189393
Requeued flit 189393
Received nack credit for flit 189223
Requeued flit 189223
5
1
1
6
3
7
Received nack credit for flit 189928
Requeued flit 189928
Received nack credit for flit 189608
Requeued flit 189608
Received nack credit for flit 189493
Requeued flit 189493
9
Received nack credit for flit 189955
Requeued flit 189955
Received nack credit for flit 189872
Requeued flit 189872
Received nack credit for flit 189483
Requeued flit 189483
Received nack credit for flit 189541
Requeued flit 189541
4
Received nack credit for flit 190113
Requeued flit 190113
1
3
Received nack credit for flit 190784
Requeued flit 190784
Received nack credit for flit 190707
Requeued flit 190707
1
1
Received nack credit for flit 191136
Requeued flit 191136
Received nack credit for flit 191180
Requeued flit 191180
1
Received nack credit for flit 191433
Requeued flit 191433
3
3
1
Received nack credit for flit 191753
Requeued flit 191753
Received nack credit for flit 191802
Requeued flit 191802
9
Received nack credit for flit 192070
Requeued flit 192070
Received nack credit for flit 191342
Requeued flit 191342
5
Received nack credit for flit 192368
Requeued flit 192368
6
Received nack credit for flit 192910
Requeued flit 192910
1
Received nack credit for flit 193478
Requeued flit 193478
1
5
Received nack credit for flit 193687
Requeued flit 193687
Received nack credit for flit 193977
Requeued flit 193977
1
5
4
Received nack credit for flit 194782
Requeued flit 194782
Received nack credit for flit 194497
Requeued flit 194497
5
Received nack credit for flit 194475
Requeued flit 194475
Received nack credit for flit 194592
Requeued flit 194592
2
6
1
Received nack credit for flit 195178
Requeued flit 195178
Received nack credit for flit 194933
Requeued flit 194933
1
Received nack credit for flit 195410
Requeued flit 195410
3
Received nack credit for flit 195354
Requeued flit 195354
Received nack credit for flit 195380
Requeued flit 195380
1
6
3
Received nack credit for flit 195870
Requeued flit 195870
Received nack credit for flit 195398
Requeued flit 195398
4
Received nack credit for flit 195809
Requeued flit 195809
Received nack credit for flit 195794
Requeued flit 195794
4
Received nack credit for flit 196023
Requeued flit 196023
6
Received nack credit for flit 196121
Requeued flit 196121
1
3
Received nack credit for flit 196784
Requeued flit 196784
Received nack credit for flit 196692
Requeued flit 196692
3
4
Received nack credit for flit 197023
Requeued flit 197023
4
2
5
5
Received nack credit for flit 197383
Requeued flit 197383
Received nack credit for flit 197117
Requeued flit 197117
Received nack credit for flit 197237
Requeued flit 197237
Received nack credit for flit 197161
Requeued flit 197161
1
4
Received nack credit for flit 197234
Requeued flit 197234
Received nack credit for flit 197653
Requeued flit 197653
Received nack credit for flit 197410
Requeued flit 197410
3
Received nack credit for flit 197745
Requeued flit 197745
3
Received nack credit for flit 197735
Requeued flit 197735
4
Received nack credit for flit 197839
Requeued flit 197839
4
Received nack credit for flit 198008
Requeued flit 198008
2
4
Received nack credit for flit 198271
Requeued flit 198271
2
Received nack credit for flit 198206
Requeued flit 198206
Received nack credit for flit 198581
Requeued flit 198581
1
Received nack credit for flit 198915
Requeued flit 198915
1
2
Received nack credit for flit 199518
Requeued flit 199518
Received nack credit for flit 199455
Requeued flit 199455
7
1
Received nack credit for flit 199007
Requeued flit 199007
Received nack credit for flit 199815
Requeued flit 199815
6
2
4
Received nack credit for flit 199825
Requeued flit 199825
Received nack credit for flit 200197
Requeued flit 200197
Received nack credit for flit 200059
Requeued flit 200059
1
1
Received nack credit for flit 200466
Requeued flit 200466
Received nack credit for flit 200590
Requeued flit 200590
2
Received nack credit for flit 200905
Requeued flit 200905
3
5
1
Received nack credit for flit 201472
Requeued flit 201472
3
Received nack credit for flit 201858
Requeued flit 201858
Received nack credit for flit 201389
Requeued flit 201389
Received nack credit for flit 201771
Requeued flit 201771
6
1
Received nack credit for flit 201771
Requeued flit 201771
1
1
Received nack credit for flit 202371
Requeued flit 202371
3
Received nack credit for flit 202504
Requeued flit 202504
Received nack credit for flit 202523
Requeued flit 202523
Received nack credit for flit 202351
Requeued flit 202351
3
Received nack credit for flit 202843
Requeued flit 202843
1
6
Received nack credit for flit 203542
Requeued flit 203542
Received nack credit for flit 202932
Requeued flit 202932
7
Received nack credit for flit 203639
Requeued flit 203639
4
1
Received nack credit for flit 204349
Requeued flit 204349
Received nack credit for flit 204138
Requeued flit 204138
2
7
Received nack credit for flit 204385
Requeued flit 204385
1
3
1
3
Received nack credit for flit 204820
Requeued flit 204820
Received nack credit for flit 203939
Requeued flit 203939
Received nack credit for flit 204622
Requeued flit 204622
Received nack credit for flit 204880
Requeued flit 204880
6
Received nack credit for flit 204615
Requeued flit 204615
1
1
Received nack credit for flit 205022
Requeued flit 205022
Received nack credit for flit 204569
Requeued flit 204569
Received nack credit for flit 205123
Requeued flit 205123
8
4
Received nack credit for flit 204658
Requeued flit 204658
Received nack credit for flit 204894
Requeued flit 204894
3
Received nack credit for flit 205237
Requeued flit 205237
3
4
Received nack credit for flit 205807
Requeued flit 205807
3
Received nack credit for flit 205749
Requeued flit 205749
3
5
Received nack credit for flit 205958
Requeued flit 205958
Received nack credit for flit 205995
Requeued flit 205995
Received nack credit for flit 205815
Requeued flit 205815
6
Received nack credit for flit 206119
Requeued flit 206119
1
Received nack credit for flit 206843
Requeued flit 206843
1
4
Received nack credit for flit 207233
Requeued flit 207233
Received nack credit for flit 207053
Requeued flit 207053
1
3
Received nack credit for flit 207502
Requeued flit 207502
4
Received nack credit for flit 207422
Requeued flit 207422
1
Received nack credit for flit 207428
Requeued flit 207428
Received nack credit for flit 207888
Requeued flit 207888
4
Received nack credit for flit 207790
Requeued flit 207790
1
5
Received nack credit for flit 208217
Requeued flit 208217
Received nack credit for flit 208001
Requeued flit 208001
5
5
Received nack credit for flit 208139
Requeued flit 208139
1
Received nack credit for flit 208211
Requeued flit 208211
1
4
Received nack credit for flit 208679
Requeued flit 208679
Received nack credit for flit 208712
Requeued flit 208712
1
Received nack credit for flit 208537
Requeued flit 208537
Received nack credit for flit 208928
Requeued flit 208928
2
1
Received nack credit for flit 208969
Requeued flit 208969
Received nack credit for flit 209150
Requeued flit 209150
2
2
4
6
Received nack credit for flit 209374
Requeued flit 209374
3
Received nack credit for flit 209348
Requeued flit 209348
Received nack credit for flit 209285
Requeued flit 209285
Received nack credit for flit 209220
Requeued flit 209220
3
Received nack credit for flit 209446
Requeued flit 209446
Received nack credit for flit 209531
Requeued flit 209531
2
8
Received nack credit for flit 210166
Requeued flit 210166
5
5
Received nack credit for flit 209594
[...]
Requeued flit 1492311
5
Received nack credit for flit 1492270
Requeued flit 1492270
4
Received nack credit for flit 1492622
Requeued flit 1492622
Received nack credit for flit 1492316
Requeued flit 1492316
Received nack credit for flit 1492270
Requeued flit 1492270
3
6
Received nack credit for flit 1492843
Requeued flit 1492843
Received nack credit for flit 1492331
Requeued flit 1492331
2
Received nack credit for flit 1493108
Requeued flit 1493108
1
1
Received nack credit for flit 1493475
Requeued flit 1493475
Received nack credit for flit 1493584
Requeued flit 1493584
1
Received nack credit for flit 1493722
Requeued flit 1493722
1
2
Received nack credit for flit 1493967
Requeued flit 1493967
Received nack credit for flit 1493991
Requeued flit 1493991
4
Received nack credit for flit 1493983
Requeued flit 1493983
2
2
Received nack credit for flit 1494476
Requeued flit 1494476
1
Received nack credit for flit 1494596
Requeued flit 1494596
Received nack credit for flit 1494763
Requeued flit 1494763
2
1
Received nack credit for flit 1494798
Requeued flit 1494798
Received nack credit for flit 1495123
Requeued flit 1495123
1
3
4
Received nack credit for flit 1495434
Requeued flit 1495434
1
Received nack credit for flit 1495309
Requeued flit 1495309
1
Received nack credit for flit 1495279
Requeued flit 1495279
Received nack credit for flit 1495632
Requeued flit 1495632
Received nack credit for flit 1495664
Requeued flit 1495664
1
2
Received nack credit for flit 1495804
Requeued flit 1495804
2
Received nack credit for flit 1495986
Requeued flit 1495986
Received nack credit for flit 1496024
Requeued flit 1496024
7
Received nack credit for flit 1495991
Requeued flit 1495991
4
11
Received nack credit for flit 1496406
Requeued flit 1496406
Received nack credit for flit 1495863
Requeued flit 1495863
3
Received nack credit for flit 1496735
Requeued flit 1496735
1
9
3
4
Received nack credit for flit 1497192
Requeued flit 1497192
Received nack credit for flit 1496524
Requeued flit 1496524
4
Received nack credit for flit 1497191
Requeued flit 1497191
Received nack credit for flit 1497127
Requeued flit 1497127
3
Received nack credit for flit 1497151
Requeued flit 1497151
1
Received nack credit for flit 1497348
Requeued flit 1497348
Received nack credit for flit 1497529
Requeued flit 1497529
1
3
Received nack credit for flit 1497839
Requeued flit 1497839
7
Received nack credit for flit 1497827
Requeued flit 1497827
9
Received nack credit for flit 1497474
Requeued flit 1497474
Received nack credit for flit 1497492
Requeued flit 1497492
6
Received nack credit for flit 1497991
Requeued flit 1497991
1
Received nack credit for flit 1498700
Requeued flit 1498700
3
5
1
Received nack credit for flit 1498966
Requeued flit 1498966
Received nack credit for flit 1498826
Requeued flit 1498826
Received nack credit for flit 1499191
Requeued flit 1499191
5
4
3
2
Received nack credit for flit 1499285
Requeued flit 1499285
Received nack credit for flit 1499164
Requeued flit 1499164
Received nack credit for flit 1499326
Requeued flit 1499326
9
Received nack credit for flit 1499322
Requeued flit 1499322
6
Received nack credit for flit 1498913
Requeued flit 1498913
Received nack credit for flit 1499330
Requeued flit 1499330
7
3
Received nack credit for flit 1499423
Requeued flit 1499423
8
Received nack credit for flit 1499633
Requeued flit 1499633
Received nack credit for flit 1499317
Requeued flit 1499317
4
Received nack credit for flit 1499876
Requeued flit 1499876
1
Received nack credit for flit 1500448
Requeued flit 1500448
1
Received nack credit for flit 1500604
Requeued flit 1500604
2
3
Received nack credit for flit 1500920
Requeued flit 1500920
Received nack credit for flit 1500829
Requeued flit 1500829
2
1
5
Received nack credit for flit 1501082
Requeued flit 1501082
Received nack credit for flit 1500960
Requeued flit 1500960
Received nack credit for flit 1501332
Requeued flit 1501332
8
9
Received nack credit for flit 1500925
Requeued flit 1500925
Received nack credit for flit 1501007
Requeued flit 1501007
5
3
1
7
Received nack credit for flit 1501342
Requeued flit 1501342
Received nack credit for flit 1501569
Requeued flit 1501569
Received nack credit for flit 1501808
Requeued flit 1501808
3
Received nack credit for flit 1501401
Requeued flit 1501401
Received nack credit for flit 1501782
Requeued flit 1501782
6
5
Received nack credit for flit 1502387
Requeued flit 1502387
4
Received nack credit for flit 1502538
Requeued flit 1502538
Received nack credit for flit 1502496
Requeued flit 1502496
3
Received nack credit for flit 1502907
Requeued flit 1502907
7
1
Received nack credit for flit 1503270
Requeued flit 1503270
Received nack credit for flit 1502801
Requeued flit 1502801
6
7
Received nack credit for flit 1503246
Requeued flit 1503246
Received nack credit for flit 1503172
Requeued flit 1503172
3
3
1
Received nack credit for flit 1503842
Requeued flit 1503842
Received nack credit for flit 1503789
Requeued flit 1503789
3
7
Received nack credit for flit 1504097
Requeued flit 1504097
2
Received nack credit for flit 1504005
Requeued flit 1504005
Received nack credit for flit 1503679
Requeued flit 1503679
2
Received nack credit for flit 1504270
Requeued flit 1504270
7
1
Received nack credit for flit 1504324
Requeued flit 1504324
Received nack credit for flit 1503767
Requeued flit 1503767
Received nack credit for flit 1504530
Requeued flit 1504530
1
1
Received nack credit for flit 1504886
Requeued flit 1504886
Received nack credit for flit 1504976
Requeued flit 1504976
6
5
Received nack credit for flit 1504929
Requeued flit 1504929
Received nack credit for flit 1505111
Requeued flit 1505111
1
Received nack credit for flit 1505664
Requeued flit 1505664
7
Received nack credit for flit 1505348
Requeued flit 1505348
9
4
Received nack credit for flit 1505628
Requeued flit 1505628
1
Received nack credit for flit 1506125
Requeued flit 1506125
Received nack credit for flit 1506446
Requeued flit 1506446
4
Received nack credit for flit 1506360
Requeued flit 1506360
1
Received nack credit for flit 1507244
Requeued flit 1507244
1
5
Received nack credit for flit 1507425
Requeued flit 1507425
Received nack credit for flit 1507087
Requeued flit 1507087
9
Received nack credit for flit 1507129
Requeued flit 1507129
2
3
1
1
Received nack credit for flit 1507817
Requeued flit 1507817
Received nack credit for flit 1507833
Requeued flit 1507833
Received nack credit for flit 1508059
Requeued flit 1508059
Received nack credit for flit 1508085
Requeued flit 1508085
1
Received nack credit for flit 1508320
Requeued flit 1508320
1
5
Received nack credit for flit 1508546
Requeued flit 1508546
5
1
1
Received nack credit for flit 1508217
Requeued flit 1508217
Received nack credit for flit 1508376
Requeued flit 1508376
Received nack credit for flit 1508739
Requeued flit 1508739
Received nack credit for flit 1508800
Requeued flit 1508800
5
10
Received nack credit for flit 1508713
Requeued flit 1508713
2
Received nack credit for flit 1508178
Requeued flit 1508178
11
5
Received nack credit for flit 1509097
Requeued flit 1509097
Received nack credit for flit 1508420
Requeued flit 1508420
Received nack credit for flit 1509016
Requeued flit 1509016
6
Received nack credit for flit 1509145
Requeued flit 1509145
9
Received nack credit for flit 1509039
Requeued flit 1509039
4
2
4
Received nack credit for flit 1509857
Requeued flit 1509857
Received nack credit for flit 1509990
Requeued flit 1509990
1
Received nack credit for flit 1509795
Requeued flit 1509795
Received nack credit for flit 1510188
Requeued flit 1510188
8
5
Received nack credit for flit 1509908
Requeued flit 1509908
Received nack credit for flit 1510142
Requeued flit 1510142
2
Received nack credit for flit 1510595
Requeued flit 1510595
4
5
Received nack credit for flit 1510812
Requeued flit 1510812
Received nack credit for flit 1510574
Requeued flit 1510574
2
4
3
Received nack credit for flit 1511374
Requeued flit 1511374
1
Received nack credit for flit 1511199
Requeued flit 1511199
Received nack credit for flit 1511404
Requeued flit 1511404
Received nack credit for flit 1511674
Requeued flit 1511674
2
2
8
Received nack credit for flit 1511907
Requeued flit 1511907
4
Received nack credit for flit 1511442
Requeued flit 1511442
Received nack credit for flit 1511949
Requeued flit 1511949
1
Received nack credit for flit 1511915
Requeued flit 1511915
Received nack credit for flit 1512168
Requeued flit 1512168
5
3
5
Received nack credit for flit 1512426
Requeued flit 1512426
Received nack credit for flit 1512070
Requeued flit 1512070
Received nack credit for flit 1512260
Requeued flit 1512260
1
3
Received nack credit for flit 1512799
Requeued flit 1512799
2
Received nack credit for flit 1512754
Requeued flit 1512754
5
Received nack credit for flit 1512856
Requeued flit 1512856
1
Received nack credit for flit 1512742
Requeued flit 1512742
1
Received nack credit for flit 1513185
Requeued flit 1513185
1
Received nack credit for flit 1513259
Requeued flit 1513259
1
Received nack credit for flit 1513439
Requeued flit 1513439
3
3
Received nack credit for flit 1513657
Requeued flit 1513657
Received nack credit for flit 1513757
Requeued flit 1513757
Received nack credit for flit 1513848
Requeued flit 1513848
1
Received nack credit for flit 1514285
Requeued flit 1514285
1
6
Received nack credit for flit 1514454
Requeued flit 1514454
Received nack credit for flit 1513791
Requeued flit 1513791
1
1
4
Received nack credit for flit 1514757
Requeued flit 1514757
Received nack credit for flit 1514721
Requeued flit 1514721
Received nack credit for flit 1514530
Requeued flit 1514530
1
Received nack credit for flit 1515045
Requeued flit 1515045
3
4
Received nack credit for flit 1515014
Requeued flit 1515014
Received nack credit for flit 1514990
Requeued flit 1514990
5
Received nack credit for flit 1515081
Requeued flit 1515081
4
2
Received nack credit for flit 1515586
Requeued flit 1515586
Received nack credit for flit 1515830
Requeued flit 1515830
1
Received nack credit for flit 1516147
Requeued flit 1516147
6
Received nack credit for flit 1515933
Requeued flit 1515933
3
6
Received nack credit for flit 1516401
Requeued flit 1516401
5
Received nack credit for flit 1516121
Requeued flit 1516121
Received nack credit for flit 1516402
Requeued flit 1516402
6
Received nack credit for flit 1516525
Requeued flit 1516525
1
4
Received nack credit for flit 1517338
Requeued flit 1517338
Received nack credit for flit 1517094
Requeued flit 1517094
4
Received nack credit for flit 1517263
Requeued flit 1517263
3
1
1
Received nack credit for flit 1517731
Requeued flit 1517731
Received nack credit for flit 1517986
Requeued flit 1517986
Received nack credit for flit 1517971
Requeued flit 1517971
1
Received nack credit for flit 1518209
Requeued flit 1518209
5
Received nack credit for flit 1517948
Requeued flit 1517948
4
Received nack credit for flit 1518235
Requeued flit 1518235
4
Received nack credit for flit 1518515
Requeued flit 1518515
2
5
Received nack credit for flit 1518807
Requeued flit 1518807
Received nack credit for flit 1519000
Requeued flit 1519000
7
4
1
Received nack credit for flit 1518804
Requeued flit 1518804
Received nack credit for flit 1519159
Requeued flit 1519159
Received nack credit for flit 1519487
Requeued flit 1519487
1
3
1
Received nack credit for flit 1519699
Requeued flit 1519699
Received nack credit for flit 1519549
Requeued flit 1519549
Received nack credit for flit 1519793
Requeued flit 1519793
1
3
Received nack credit for flit 1519964
Requeued flit 1519964
Received nack credit for flit 1519870
Requeued flit 1519870
7
1
Received nack credit for flit 1519648
Requeued flit 1519648
Received nack credit for flit 1520378
Requeued flit 1520378
9
Received nack credit for flit 1519958
Requeued flit 1519958
4
1
1
Received nack credit for flit 1521601
Requeued flit 1521601
Received nack credit for flit 1521298
Requeued flit 1521298
Received nack credit for flit 1521714
Requeued flit 1521714
1
2
Received nack credit for flit 1521864
Requeued flit 1521864
Received nack credit for flit 1521941
Requeued flit 1521941
7
3
5
Received nack credit for flit 1521841
Requeued flit 1521841
Received nack credit for flit 1522098
Requeued flit 1522098
Received nack credit for flit 1522144
Requeued flit 1522144
8
4
5
Received nack credit for flit 1522055
Requeued flit 1522055
Received nack credit for flit 1522434
Requeued flit 1522434
Received nack credit for flit 1522412
Requeued flit 1522412
1
Received nack credit for flit 1523325
Requeued flit 1523325
4
Received nack credit for flit 1523321
Requeued flit 1523321
3
3
Received nack credit for flit 1523613
Requeued flit 1523613
1
9
Received nack credit for flit 1523957
Requeued flit 1523957
Received nack credit for flit 1523781
Requeued flit 1523781
Received nack credit for flit 1523308
Requeued flit 1523308
1
4
Received nack credit for flit 1524616
Requeued flit 1524616
Received nack credit for flit 1524360
Requeued flit 1524360
3
1
5
Received nack credit for flit 1525007
Requeued flit 1525007
3
5
Received nack credit for flit 1525019
Requeued flit 1525019
Received nack credit for flit 1525240
Requeued flit 1525240
1
Received nack credit for flit 1525252
Requeued flit 1525252
Received nack credit for flit 1525085
Requeued flit 1525085
7
1
Received nack credit for flit 1525523
Requeued flit 1525523
2
4
Received nack credit for flit 1524924
Requeued flit 1524924
Received nack credit for flit 1525615
Requeued flit 1525615
1
Received nack credit for flit 1525605
Requeued flit 1525605
Received nack credit for flit 1525475
Requeued flit 1525475
4
Received nack credit for flit 1525759
Requeued flit 1525759
7
Received nack credit for flit 1525567
Requeued flit 1525567
Received nack credit for flit 1525514
Requeued flit 1525514
6
1
Received nack credit for flit 1525688
Requeued flit 1525688
Received nack credit for flit 1526387
Requeued flit 1526387
1
2
Received nack credit for flit 1526550
Requeued flit 1526550
Received nack credit for flit 1526756
Requeued flit 1526756
2
7
Received nack credit for flit 1527695
Requeued flit 1527695
Received nack credit for flit 1527322
Requeued flit 1527322
4
Received nack credit for flit 1527743
Requeued flit 1527743
9
Received nack credit for flit 1527550
Requeued flit 1527550
2
1
Received nack credit for flit 1528737
Requeued flit 1528737
Received nack credit for flit 1528864
Requeued flit 1528864
1
Received nack credit for flit 1529387
Requeued flit 1529387
3
6
2
Received nack credit for flit 1529508
Requeued flit 1529508
Received nack credit for flit 1529179
Requeued flit 1529179
Received nack credit for flit 1529606
Requeued flit 1529606
11
Received nack credit for flit 1528778
Requeued flit 1528778
2
Received nack credit for flit 1529922
Requeued flit 1529922
8
2
Received nack credit for flit 1530286
Requeued flit 1530286
1
Received nack credit for flit 1529797
Requeued flit 1529797
Received nack credit for flit 1530601
Requeued flit 1530601
5
2
Received nack credit for flit 1530482
Requeued flit 1530482
2
Received nack credit for flit 1530725
Requeued flit 1530725
1
Received nack credit for flit 1531061
Requeued flit 1531061
3
Received nack credit for flit 1530941
Requeued flit 1530941
4
Received nack credit for flit 1530954
Requeued flit 1530954
Received nack credit for flit 1530956
Requeued flit 1530956
3
Received nack credit for flit 1531370
Requeued flit 1531370
6
1
3
Received nack credit for flit 1531335
Requeued flit 1531335
Received nack credit for flit 1531858
Requeued flit 1531858
1
Received nack credit for flit 1531488
Requeued flit 1531488
Received nack credit for flit 1531960
Requeued flit 1531960
1
1
3
Received nack credit for flit 1532101
Requeued flit 1532101
1
Received nack credit for flit 1532081
Requeued flit 1532081
5
Received nack credit for flit 1531985
Requeued flit 1531985
Received nack credit for flit 1532189
Requeued flit 1532189
Received nack credit for flit 1532007
Requeued flit 1532007
1
Received nack credit for flit 1532421
Requeued flit 1532421
3
Received nack credit for flit 1533042
Requeued flit 1533042
7
5
Received nack credit for flit 1532946
Requeued flit 1532946
3
Received nack credit for flit 1533227
Requeued flit 1533227
Received nack credit for flit 1533487
Requeued flit 1533487
3
Received nack credit for flit 1533664
Requeued flit 1533664
3
2
Received nack credit for flit 1533865
Requeued flit 1533865
1
2
Received nack credit for flit 1534011
Requeued flit 1534011
5
Received nack credit for flit 1534197
Requeued flit 1534197
Received nack credit for flit 1534125
Requeued flit 1534125
Received nack credit for flit 1533827
Requeued flit 1533827
1
Received nack credit for flit 1534641
Requeued flit 1534641
1
5
Received nack credit for flit 1535389
Requeued flit 1535389
Received nack credit for flit 1534965
Requeued flit 1534965
2
Received nack credit for flit 1535888
Requeued flit 1535888
1
1
6
Received nack credit for flit 1536317
Requeued flit 1536317
Received nack credit for flit 1536272
Requeued flit 1536272
1
Received nack credit for flit 1535968
Requeued flit 1535968
Class 0:
Packet latency average = 24.1604
	minimum = 5
	maximum = 82
Network latency average = 24.1604
	minimum = 5
	maximum = 82
Slowest packet = 1306789
Flit latency average = 24.1651
	minimum = 5
	maximum = 82
Slowest flit = 1306789
Fragmentation average = 0
	minimum = 0
	maximum = 0
Injected packet rate average = 0.400423
	minimum = 0.391933 (at node 9)
	maximum = 0.406367 (at node 24)
Accepted packet rate average = 0.400426
	minimum = 0.392967 (at node 18)
	maximum = 0.407233 (at node 31)
Injected flit rate average = 0.400423
	minimum = 0.391933 (at node 9)
	maximum = 0.406367 (at node 24)
Accepted flit rate average= 0.400426
	minimum = 0.392967 (at node 18)
	maximum = 0.407233 (at node 31)
Injected packet length average = 1
Accepted packet length average = 1
Total in-flight flits = 659 (659 measured)
latency change    = 0.000191768
throughput change = 0.000108608
Draining all recorded packets ...
4
Received nack credit for flit 1536546
Requeued flit 1536546
Received nack credit for flit 1536337
Requeued flit 1536337
8
4
Received nack credit for flit 1536141
Requeued flit 1536141
4
Received nack credit for flit 1536517
Requeued flit 1536517
4
Received nack credit for flit 1536697
Requeued flit 1536697
Received nack credit for flit 1536804
Requeued flit 1536804
2
Received nack credit for flit 1537134
Requeued flit 1537134
7
4
Received nack credit for flit 1537462
Requeued flit 1537462
2
Received nack credit for flit 1537116
Requeued flit 1537116
1
4
5
Received nack credit for flit 1537951
Requeued flit 1537951
Draining remaining packets ...
Received nack credit for flit 1538063
Requeued flit 1538063
Received nack credit for flit 1537828
Requeued flit 1537828
Received nack credit for flit 1537753
Requeued flit 1537753
5
Received nack credit for flit 1537713
Requeued flit 1537713
Time taken is 60111 cycles
====== Overall Traffic Statistics ======
====== Traffic class 0 ======
Packet latency average = 24.1645 (1 samples)
	minimum = 5 (1 samples)
	maximum = 82 (1 samples)
Network latency average = 24.1645 (1 samples)
	minimum = 5 (1 samples)
	maximum = 82 (1 samples)
Flit latency average = 24.1687 (1 samples)
	minimum = 5 (1 samples)
	maximum = 82 (1 samples)
Fragmentation average = 0 (1 samples)
	minimum = 0 (1 samples)
	maximum = 0 (1 samples)
Injected packet rate average = 0.400423 (1 samples)
	minimum = 0.391933 (1 samples)
	maximum = 0.406367 (1 samples)
Accepted packet rate average = 0.400426 (1 samples)
	minimum = 0.392967 (1 samples)
	maximum = 0.407233 (1 samples)
Injected flit rate average = 0.400423 (1 samples)
	minimum = 0.391933 (1 samples)
	maximum = 0.406367 (1 samples)
Accepted flit rate average = 0.400426 (1 samples)
	minimum = 0.392967 (1 samples)
	maximum = 0.407233 (1 samples)
Injected packet size average = 1 (1 samples)
Accepted packet size average = 1 (1 samples)
Hops average = 6.25146 (1 samples)
Total run time 129.189
