BEGIN Configuration File: examples/ecc_mesh88_config_1_0.700_packet_4
// $Id$

// Copyright (c) 2007-2015, Trustees of The Leland Stanford Junior University
// All rights reserved.
//
// Redistribution and use in source and binary forms, with or without
// modification, are permitted provided that the following conditions are met:
//
// Redistributions of source code must retain the above copyright notice, this
// list of conditions and the following disclaimer.
// Redistributions in binary form must reproduce the above copyright notice,
// this list of conditions and the following disclaimer in the documentation
// and/or other materials provided with the distribution.
//
// THIS SOFTWARE IS PROVIDED BY THE COPYRIGHT HOLDERS AND CONTRIBUTORS "AS IS"
// AND ANY EXPRESS OR IMPLIED WARRANTIES, INCLUDING, BUT NOT LIMITED TO, THE
// IMPLIED WARRANTIES OF MERCHANTABILITY AND FITNESS FOR A PARTICULAR PURPOSE
// ARE DISCLAIMED. IN NO EVENT SHALL THE COPYRIGHT OWNER OR CONTRIBUTORS BE
// LIABLE FOR ANY DIRECT, INDIRECT, INCIDENTAL, SPECIAL, EXEMPLARY, OR
// CONSEQUENTIAL DAMAGES (INCLUDING, BUT NOT LIMITED TO, PROCUREMENT OF
// SUBSTITUTE GOODS OR SERVICES; LOSS OF USE, DATA, OR PROFITS; OR BUSINESS
// INTERRUPTION) HOWEVER CAUSED AND ON ANY THEORY OF LIABILITY, WHETHER IN
// CONTRACT, STRICT LIABILITY, OR TORT (INCLUDING NEGLIGENCE OR OTHERWISE)
// ARISING IN ANY WAY OUT OF THE USE OF THIS SOFTWARE, EVEN IF ADVISED OF THE
// POSSIBILITY OF SUCH DAMAGE.

// Dragonfly
//




vc_buf_size = 256;


wait_for_tail_credit = 0;

//
// Router architecture
//
vc_allocator = separable_input_first; 
sw_allocator = separable_input_first;
alloc_iters  = 1;

credit_delay   = 2;
routing_delay  = 0;
vc_alloc_delay = 1;
sw_alloc_delay = 1;
st_final_delay = 1;

input_speedup     = 1;
output_speedup    = 1;
internal_speedup  = 2.0;


warmup_periods = 3;
sim_count          = 1;

sample_period  = 10000;  


routing_function = dor;
num_vcs     = 2;

priority = none;
traffic       = uniform; 

injection_rate = 0.7;
packet_size = 1;
injection_rate_uses_flits = 1;

topology = mesh;

k  = 8;
n  = 2;

fer = 4;
ecc = link;

watch_out=-;
//watch_file = watch.txt;

ecc = packet;

stats_out = examples/ecc_mesh88_config_1_0.700_packet_4.m;

END Configuration File: examples/ecc_mesh88_config_1_0.700_packet_4
Additional hops: 7
Set signal latency stall time: 14
Reenqueueing errored packet 257 at time 52
Additional hops: 11
Set signal latency stall time: 8
Reenqueueing errored packet 1998 at time 69
Additional hops: 16
Set signal latency stall time: 10
Reenqueueing errored packet 2765 at time 95
Additional hops: 21
Set signal latency stall time: 10
Reenqueueing errored packet 6491 at time 197
Additional hops: 25
Set signal latency stall time: 8
Reenqueueing errored packet 9137 at time 244
Additional hops: 30
Set signal latency stall time: 10
Additional hops: 33
Set signal latency stall time: 6
Reenqueueing errored packet 8937 at time 264
Reenqueueing errored packet 10951 at time 267
Additional hops: 40
Set signal latency stall time: 14
Reenqueueing errored packet 6887 at time 288
Additional hops: 42
Set signal latency stall time: 4
Reenqueueing errored packet 14314 at time 335
Additional hops: 49
Set signal latency stall time: 14
Additional hops: 57
Set signal latency stall time: 16
Reenqueueing errored packet 13226 at time 443
Reenqueueing errored packet 11257 at time 452
Additional hops: 64
Set signal latency stall time: 14
Reenqueueing errored packet 14445 at time 502
Additional hops: 70
Set signal latency stall time: 12
Additional hops: 76
Set signal latency stall time: 12
Reenqueueing errored packet 15952 at time 541
Reenqueueing errored packet 19630 at time 552
Additional hops: 91
Set signal latency stall time: 30
Additional hops: 101
Set signal latency stall time: 20
Reenqueueing errored packet 14858 at time 732
Reenqueueing errored packet 20503 at time 741
Additional hops: 109
Set signal latency stall time: 16
Reenqueueing errored packet 28693 at time 867
Additional hops: 115
Set signal latency stall time: 12
Reenqueueing errored packet 34587 at time 931
Additional hops: 124
Set signal latency stall time: 18
Reenqueueing errored packet 35635 at time 1039
Additional hops: 131
Set signal latency stall time: 14
Additional hops: 134
Set signal latency stall time: 6
Reenqueueing errored packet 31313 at time 1077
Reenqueueing errored packet 34900 at time 1079
Additional hops: 141
Set signal latency stall time: 14
Additional hops: 150
Set signal latency stall time: 18
Reenqueueing errored packet 33099 at time 1192
Reenqueueing errored packet 29932 at time 1205
Additional hops: 158
Set signal latency stall time: 16
Additional hops: 165
Set signal latency stall time: 14
Reenqueueing errored packet 40413 at time 1223
Reenqueueing errored packet 32997 at time 1229
Additional hops: 171
Set signal latency stall time: 12
Reenqueueing errored packet 35449 at time 1361
Additional hops: 178
Set signal latency stall time: 14
Reenqueueing errored packet 43785 at time 1390
Additional hops: 187
Set signal latency stall time: 18
Additional hops: 201
Set signal latency stall time: 28
Additional hops: 205
Set signal latency stall time: 8
Reenqueueing errored packet 36218 at time 1419
Reenqueueing errored packet 52158 at time 1427
Reenqueueing errored packet 30743 at time 1445
Additional hops: 212
Set signal latency stall time: 14
Reenqueueing errored packet 41740 at time 1536
Additional hops: 218
Set signal latency stall time: 12
Reenqueueing errored packet 68567 at time 1625
Additional hops: 224
Set signal latency stall time: 12
Reenqueueing errored packet 58559 at time 1671
Additional hops: 235
Set signal latency stall time: 22
Reenqueueing errored packet 41132 at time 1705
Additional hops: 240
Set signal latency stall time: 10
Reenqueueing errored packet 64964 at time 1794
Additional hops: 246
Set signal latency stall time: 12
Reenqueueing errored packet 65463 at time 1818
Additional hops: 253
Set signal latency stall time: 14
Reenqueueing errored packet 59957 at time 1876
Additional hops: 258
Set signal latency stall time: 10
Reenqueueing errored packet 55072 at time 1903
Additional hops: 263
Set signal latency stall time: 10
Additional hops: 272
Set signal latency stall time: 18
Reenqueueing errored packet 79400 at time 1959
Reenqueueing errored packet 47256 at time 1973
Additional hops: 281
Set signal latency stall time: 18
Additional hops: 283
Set signal latency stall time: 4
Reenqueueing errored packet 72895 at time 2017
Reenqueueing errored packet 89671 at time 2018
Additional hops: 288
Set signal latency stall time: 10
Additional hops: 297
Set signal latency stall time: 18
Reenqueueing errored packet 62727 at time 2103
Additional hops: 299
Set signal latency stall time: 4
Reenqueueing errored packet 56459 at time 2121
Reenqueueing errored packet 93584 at time 2125
Additional hops: 302
Set signal latency stall time: 6
Reenqueueing errored packet 95486 at time 2156
Additional hops: 311
Set signal latency stall time: 18
Additional hops: 316
Set signal latency stall time: 10
Additional hops: 327
Set signal latency stall time: 22
Reenqueueing errored packet 51360 at time 2210
Reenqueueing errored packet 71680 at time 2215
Reenqueueing errored packet 64376 at time 2229
Additional hops: 342
Set signal latency stall time: 30
Reenqueueing errored packet 54545 at time 2418
Additional hops: 348
Set signal latency stall time: 12
Additional hops: 354
Set signal latency stall time: 12
Reenqueueing errored packet 69825 at time 2432
Additional hops: 358
Set signal latency stall time: 8
Reenqueueing errored packet 67613 at time 2440
Reenqueueing errored packet 98708 at time 2441
Additional hops: 362
Set signal latency stall time: 8
Additional hops: 369
Set signal latency stall time: 14
Reenqueueing errored packet 107123 at time 2452
Reenqueueing errored packet 76461 at time 2458
Additional hops: 376
Set signal latency stall time: 14
Reenqueueing errored packet 69421 at time 2502
Additional hops: 384
Set signal latency stall time: 16
Reenqueueing errored packet 74405 at time 2572
Additional hops: 395
Set signal latency stall time: 22
Reenqueueing errored packet 63240 at time 2603
Additional hops: 400
Set signal latency stall time: 10
Reenqueueing errored packet 99361 at time 2631
Additional hops: 406
Set signal latency stall time: 12
Reenqueueing errored packet 99399 at time 2654
Additional hops: 415
Set signal latency stall time: 18
Reenqueueing errored packet 65988 at time 2743
Additional hops: 421
Set signal latency stall time: 12
Reenqueueing errored packet 73062 at time 2757
Additional hops: 431
Set signal latency stall time: 20
Reenqueueing errored packet 97033 at time 2787
Additional hops: 435
Set signal latency stall time: 8
Additional hops: 441
Set signal latency stall time: 12
Reenqueueing errored packet 103874 at time 2805
Reenqueueing errored packet 112630 at time 2809
Additional hops: 448
Set signal latency stall time: 14
Reenqueueing errored packet 83520 at time 3116
Additional hops: 453
Set signal latency stall time: 10
Reenqueueing errored packet 127668 at time 3158
Additional hops: 460
Set signal latency stall time: 14
Reenqueueing errored packet 98079 at time 3237
Additional hops: 465
Set signal latency stall time: 10
Reenqueueing errored packet 111050 at time 3268
Additional hops: 471
Set signal latency stall time: 12
Reenqueueing errored packet 110131 at time 3312
Additional hops: 474
Set signal latency stall time: 6
Reenqueueing errored packet 141612 at time 3342
Additional hops: 478
Set signal latency stall time: 8
Reenqueueing errored packet 150234 at time 3431
Additional hops: 485
Set signal latency stall time: 14
Reenqueueing errored packet 115529 at time 3543
Additional hops: 492
Set signal latency stall time: 14
Additional hops: 498
Set signal latency stall time: 12
Reenqueueing errored packet 102328 at time 3562
Reenqueueing errored packet 142334 at time 3563
Additional hops: 504
Set signal latency stall time: 12
Additional hops: 514
Set signal latency stall time: 20
Reenqueueing errored packet 94865 at time 3631
Additional hops: 520
Set signal latency stall time: 12
Reenqueueing errored packet 95104 at time 3651
Reenqueueing errored packet 97450 at time 3657
Additional hops: 525
Set signal latency stall time: 10
Reenqueueing errored packet 139240 at time 3671
Additional hops: 534
Set signal latency stall time: 18
Reenqueueing errored packet 100271 at time 3696
Additional hops: 540
Set signal latency stall time: 12
Additional hops: 545
Set signal latency stall time: 10
Reenqueueing errored packet 163928 at time 3737
Reenqueueing errored packet 164424 at time 3741
Additional hops: 555
Set signal latency stall time: 20
Additional hops: 562
Set signal latency stall time: 14
Reenqueueing errored packet 100272 at time 3906
Additional hops: 571
Set signal latency stall time: 18
Reenqueueing errored packet 126618 at time 3919
Reenqueueing errored packet 105097 at time 3927
Additional hops: 582
Set signal latency stall time: 22
Additional hops: 591
Set signal latency stall time: 18
Reenqueueing errored packet 123387 at time 3980
Additional hops: 604
Set signal latency stall time: 26
Additional hops: 617
Set signal latency stall time: 26
Reenqueueing errored packet 139135 at time 3995
Additional hops: 623
Set signal latency stall time: 12
Reenqueueing errored packet 129131 at time 4013
Reenqueueing errored packet 91724 at time 4018
Reenqueueing errored packet 92101 at time 4021
Additional hops: 626
Set signal latency stall time: 6
Reenqueueing errored packet 168175 at time 4036
Additional hops: 633
Set signal latency stall time: 14
Reenqueueing errored packet 155189 at time 4111
Additional hops: 640
Set signal latency stall time: 14
Reenqueueing errored packet 101748 at time 4149
Additional hops: 647
Set signal latency stall time: 14
Reenqueueing errored packet 156315 at time 4194
Additional hops: 652
Set signal latency stall time: 10
Reenqueueing errored packet 153077 at time 4208
Additional hops: 655
Set signal latency stall time: 6
Reenqueueing errored packet 179800 at time 4296
Additional hops: 659
Set signal latency stall time: 8
Reenqueueing errored packet 156282 at time 4333
Additional hops: 668
Set signal latency stall time: 18
Reenqueueing errored packet 158769 at time 4354
Additional hops: 679
Set signal latency stall time: 22
Reenqueueing errored packet 106991 at time 4432
Additional hops: 683
Set signal latency stall time: 8
Reenqueueing errored packet 146089 at time 4500
Additional hops: 688
Set signal latency stall time: 10
Reenqueueing errored packet 166794 at time 4566
Additional hops: 693
Set signal latency stall time: 10
Reenqueueing errored packet 177147 at time 4661
Additional hops: 698
Set signal latency stall time: 10
Reenqueueing errored packet 153033 at time 4678
Additional hops: 707
Set signal latency stall time: 18
Reenqueueing errored packet 163735 at time 4706
Additional hops: 714
Set signal latency stall time: 14
Additional hops: 720
Set signal latency stall time: 12
Reenqueueing errored packet 183320 at time 4720
Reenqueueing errored packet 178201 at time 4721
Additional hops: 726
Set signal latency stall time: 12
Additional hops: 728
Set signal latency stall time: 4
Reenqueueing errored packet 201027 at time 4732
Additional hops: 733
Set signal latency stall time: 10
Reenqueueing errored packet 159233 at time 4773
Additional hops: 742
Set signal latency stall time: 18
Additional hops: 746
Set signal latency stall time: 8
Reenqueueing errored packet 133050 at time 4816
Reenqueueing errored packet 186173 at time 4824
Additional hops: 749
Set signal latency stall time: 6
Additional hops: 760
Set signal latency stall time: 22
Reenqueueing errored packet 122531 at time 5098
Additional hops: 769
Set signal latency stall time: 18
Reenqueueing errored packet 163912 at time 5182
Additional hops: 774
Set signal latency stall time: 10
Reenqueueing errored packet 156605 at time 5243
Additional hops: 780
Set signal latency stall time: 12
Reenqueueing errored packet 179032 at time 5283
Additional hops: 786
Set signal latency stall time: 12
Reenqueueing errored packet 212422 at time 5335
Additional hops: 791
Set signal latency stall time: 10
Reenqueueing errored packet 214007 at time 5448
Additional hops: 805
Set signal latency stall time: 28
Additional hops: 813
Set signal latency stall time: 16
Reenqueueing errored packet 125179 at time 5497
Reenqueueing errored packet 143672 at time 5509
Additional hops: 819
Set signal latency stall time: 12
Additional hops: 825
Set signal latency stall time: 12
Reenqueueing errored packet 227999 at time 5547
Reenqueueing errored packet 190351 at time 5551
Additional hops: 834
Set signal latency stall time: 18
Additional hops: 844
Set signal latency stall time: 20
Reenqueueing errored packet 157343 at time 5593
Reenqueueing errored packet 209211 at time 5608
Additional hops: 848
Set signal latency stall time: 8
Reenqueueing errored packet 220664 at time 5680
Additional hops: 856
Set signal latency stall time: 16
Reenqueueing errored packet 156428 at time 5723
Additional hops: 866
Set signal latency stall time: 20
Reenqueueing errored packet 187348 at time 5782
Additional hops: 871
Set signal latency stall time: 10
Reenqueueing errored packet 213609 at time 5793
Additional hops: 875
Set signal latency stall time: 8
Additional hops: 882
Set signal latency stall time: 14
Reenqueueing errored packet 223386 at time 5827
Reenqueueing errored packet 186144 at time 5834
Additional hops: 888
Set signal latency stall time: 12
Additional hops: 895
Set signal latency stall time: 14
Reenqueueing errored packet 178365 at time 5847
Reenqueueing errored packet 150646 at time 5851
Additional hops: 904
Set signal latency stall time: 18
Reenqueueing errored packet 148724 at time 5877
Additional hops: 909
Set signal latency stall time: 10
Reenqueueing errored packet 224851 at time 5924
Additional hops: 914
Set signal latency stall time: 10
Reenqueueing errored packet 209862 at time 5973
Additional hops: 919
Set signal latency stall time: 10
Additional hops: 928
Set signal latency stall time: 18
Reenqueueing errored packet 151692 at time 6035
Additional hops: 932
Set signal latency stall time: 8
Reenqueueing errored packet 241316 at time 6054
Additional hops: 942
Set signal latency stall time: 20
Additional hops: 951
Set signal latency stall time: 18
Reenqueueing errored packet 187261 at time 6149
Reenqueueing errored packet 236479 at time 6153
Additional hops: 958
Set signal latency stall time: 14
Reenqueueing errored packet 227416 at time 6184
Additional hops: 965
Set signal latency stall time: 14
Reenqueueing errored packet 189603 at time 6239
Additional hops: 976
Set signal latency stall time: 22
Reenqueueing errored packet 193543 at time 6291
Additional hops: 984
Set signal latency stall time: 16
Additional hops: 992
Set signal latency stall time: 16
Reenqueueing errored packet 224526 at time 6365
Additional hops: 1001
Set signal latency stall time: 18
Reenqueueing errored packet 219936 at time 6415
Additional hops: 1012
Set signal latency stall time: 22
Additional hops: 1017
Set signal latency stall time: 10
Reenqueueing errored packet 264324 at time 6472
Additional hops: 1026
Set signal latency stall time: 18
Reenqueueing errored packet 151947 at time 6529
Additional hops: 1029
Set signal latency stall time: 6
Reenqueueing errored packet 260592 at time 6551
Additional hops: 1042
Set signal latency stall time: 26
Additional hops: 1052
Set signal latency stall time: 20
Reenqueueing errored packet 232951 at time 6649
Additional hops: 1056
Set signal latency stall time: 8
Reenqueueing errored packet 247548 at time 6663
Additional hops: 1064
Set signal latency stall time: 16
Reenqueueing errored packet 259594 at time 6681
Additional hops: 1070
Set signal latency stall time: 12
Additional hops: 1077
Set signal latency stall time: 14
Additional hops: 1081
Set signal latency stall time: 8
Reenqueueing errored packet 225098 at time 6724
Reenqueueing errored packet 225966 at time 6732
Additional hops: 1088
Set signal latency stall time: 14
Reenqueueing errored packet 220316 at time 6788
Additional hops: 1099
Set signal latency stall time: 22
Reenqueueing errored packet 234289 at time 6875
Additional hops: 1108
Set signal latency stall time: 18
Reenqueueing errored packet 221228 at time 6900
Additional hops: 1115
Set signal latency stall time: 14
Additional hops: 1118
Set signal latency stall time: 6
Reenqueueing errored packet 291182 at time 6950
Additional hops: 1123
Set signal latency stall time: 10
Reenqueueing errored packet 274556 at time 7020
Additional hops: 1132
Set signal latency stall time: 18
Additional hops: 1142
Set signal latency stall time: 20
Reenqueueing errored packet 165559 at time 7192
Additional hops: 1147
Set signal latency stall time: 10
Additional hops: 1154
Set signal latency stall time: 14
Reenqueueing errored packet 217969 at time 7212
Reenqueueing errored packet 242744 at time 7224
Additional hops: 1163
Set signal latency stall time: 18
Additional hops: 1170
Set signal latency stall time: 14
Additional hops: 1178
Set signal latency stall time: 16
Reenqueueing errored packet 272420 at time 7465
Additional hops: 1184
Set signal latency stall time: 12
Additional hops: 1188
Set signal latency stall time: 8
Reenqueueing errored packet 290309 at time 7498
Additional hops: 1195
Set signal latency stall time: 14
Additional hops: 1202
Set signal latency stall time: 14
Reenqueueing errored packet 260475 at time 7504
Reenqueueing errored packet 254107 at time 7517
Reenqueueing errored packet 302416 at time 7518
Additional hops: 1210
Set signal latency stall time: 16
Reenqueueing errored packet 277216 at time 7551
Additional hops: 1211
Set signal latency stall time: 2
Reenqueueing errored packet 312088 at time 7562
Additional hops: 1219
Set signal latency stall time: 16
Additional hops: 1223
Set signal latency stall time: 8
Additional hops: 1225
Set signal latency stall time: 4
Reenqueueing errored packet 305320 at time 7733
Additional hops: 1235
Set signal latency stall time: 20
Additional hops: 1242
Set signal latency stall time: 14
Reenqueueing errored packet 256346 at time 7822
Additional hops: 1250
Set signal latency stall time: 16
Additional hops: 1259
Set signal latency stall time: 18
Additional hops: 1267
Set signal latency stall time: 16
Reenqueueing errored packet 302304 at time 7927
Additional hops: 1274
Set signal latency stall time: 14
Reenqueueing errored packet 295564 at time 7934
Reenqueueing errored packet 298075 at time 7937
Reenqueueing errored packet 273695 at time 7944
Additional hops: 1278
Set signal latency stall time: 8
Reenqueueing errored packet 310566 at time 7955
Additional hops: 1285
Set signal latency stall time: 14
Reenqueueing errored packet 288190 at time 8000
Additional hops: 1288
Set signal latency stall time: 6
Reenqueueing errored packet 319085 at time 8064
Additional hops: 1295
Set signal latency stall time: 14
Additional hops: 1303
Set signal latency stall time: 16
Reenqueueing errored packet 278464 at time 8101
Additional hops: 1311
Set signal latency stall time: 16
Reenqueueing errored packet 306148 at time 8151
Additional hops: 1319
Set signal latency stall time: 16
Additional hops: 1323
Set signal latency stall time: 8
Additional hops: 1328
Set signal latency stall time: 10
Reenqueueing errored packet 315001 at time 8203
Reenqueueing errored packet 300660 at time 8203
Additional hops: 1333
Set signal latency stall time: 10
Additional hops: 1345
Set signal latency stall time: 24
Reenqueueing errored packet 266423 at time 8309
Additional hops: 1358
Set signal latency stall time: 26
Additional hops: 1362
Set signal latency stall time: 8
Reenqueueing errored packet 324217 at time 8366
Additional hops: 1366
Set signal latency stall time: 8
Reenqueueing errored packet 332393 at time 8426
Additional hops: 1377
Set signal latency stall time: 22
Additional hops: 1385
Set signal latency stall time: 16
Reenqueueing errored packet 297081 at time 8574
Additional hops: 1391
Set signal latency stall time: 12
Additional hops: 1398
Set signal latency stall time: 14
Reenqueueing errored packet 266197 at time 8597
Additional hops: 1406
Set signal latency stall time: 16
Reenqueueing errored packet 200607 at time 8753
Additional hops: 1417
Set signal latency stall time: 22
Additional hops: 1421
Set signal latency stall time: 8
Reenqueueing errored packet 274840 at time 8829
Additional hops: 1426
Set signal latency stall time: 10
Additional hops: 1437
Set signal latency stall time: 22
Additional hops: 1444
Set signal latency stall time: 14
Reenqueueing errored packet 313302 at time 8901
Reenqueueing errored packet 239728 at time 8915
Additional hops: 1447
Set signal latency stall time: 6
Reenqueueing errored packet 341704 at time 8968
Additional hops: 1452
Set signal latency stall time: 10
Additional hops: 1457
Set signal latency stall time: 10
Reenqueueing errored packet 314624 at time 9114
Additional hops: 1466
Set signal latency stall time: 18
Reenqueueing errored packet 316217 at time 9143
Additional hops: 1476
Set signal latency stall time: 20
Reenqueueing errored packet 203089 at time 9212
Additional hops: 1485
Set signal latency stall time: 18
Reenqueueing errored packet 319505 at time 9266
Additional hops: 1491
Set signal latency stall time: 12
Reenqueueing errored packet 347253 at time 9284
Additional hops: 1499
Set signal latency stall time: 16
Additional hops: 1508
Set signal latency stall time: 18
Additional hops: 1511
Set signal latency stall time: 6
Additional hops: 1521
Set signal latency stall time: 20
Reenqueueing errored packet 329183 at time 9333
Additional hops: 1529
Set signal latency stall time: 16
Additional hops: 1536
Set signal latency stall time: 14
Reenqueueing errored packet 333354 at time 9443
Reenqueueing errored packet 348006 at time 9444
Additional hops: 1546
Set signal latency stall time: 20
Reenqueueing errored packet 316844 at time 9491
Additional hops: 1549
Set signal latency stall time: 6
Reenqueueing errored packet 353686 at time 9586
Additional hops: 1559
Set signal latency stall time: 20
Reenqueueing errored packet 308052 at time 9640
Additional hops: 1567
Set signal latency stall time: 16
Additional hops: 1578
Set signal latency stall time: 22
Additional hops: 1583
Set signal latency stall time: 10
Reenqueueing errored packet 379850 at time 9797
Additional hops: 1590
Set signal latency stall time: 14
Reenqueueing errored packet 347395 at time 9821
Additional hops: 1595
Set signal latency stall time: 10
Reenqueueing errored packet 366484 at time 9837
Additional hops: 1600
Set signal latency stall time: 10
Reenqueueing errored packet 323866 at time 9850
Additional hops: 1610
Set signal latency stall time: 20
Reenqueueing errored packet 352781 at time 9954
Additional hops: 1619
Set signal latency stall time: 18
Class 0:
Packet latency average = 1083.47
	minimum = 5
	maximum = 6425
Network latency average = 1055.2
	minimum = 5
	maximum = 5258
Slowest packet = 30180
Flit latency average = 1055.2
	minimum = 5
	maximum = 5258
Slowest flit = 208055
Fragmentation average = 0
	minimum = 0
	maximum = 0
Injected packet rate average = 0.614106
	minimum = 0.4875 (at node 38)
	maximum = 0.7086 (at node 61)
Accepted packet rate average = 0.509563
	minimum = 0.4937 (at node 36)
	maximum = 0.5249 (at node 5)
Injected flit rate average = 0.614106
	minimum = 0.4875 (at node 38)
	maximum = 0.7086 (at node 61)
Accepted flit rate average= 0.509563
	minimum = 0.4937 (at node 36)
	maximum = 0.5249 (at node 5)
Injected packet length average = 1
Accepted packet length average = 1
Total in-flight flits = 66963 (0 measured)
latency change    = 1
throughput change = 1
Average latency for class 0 exceeded 500 cycles. Aborting simulation.
Too many sample periods needed to converge
Simulation unstable, ending ...
Total run time 54.7162
