BEGIN Configuration File: examples/ecc_mesh88_config_1_0.850_link_3
// $Id$

// Copyright (c) 2007-2015, Trustees of The Leland Stanford Junior University
// All rights reserved.
//
// Redistribution and use in source and binary forms, with or without
// modification, are permitted provided that the following conditions are met:
//
// Redistributions of source code must retain the above copyright notice, this
// list of conditions and the following disclaimer.
// Redistributions in binary form must reproduce the above copyright notice,
// this list of conditions and the following disclaimer in the documentation
// and/or other materials provided with the distribution.
//
// THIS SOFTWARE IS PROVIDED BY THE COPYRIGHT HOLDERS AND CONTRIBUTORS "AS IS"
// AND ANY EXPRESS OR IMPLIED WARRANTIES, INCLUDING, BUT NOT LIMITED TO, THE
// IMPLIED WARRANTIES OF MERCHANTABILITY AND FITNESS FOR A PARTICULAR PURPOSE
// ARE DISCLAIMED. IN NO EVENT SHALL THE COPYRIGHT OWNER OR CONTRIBUTORS BE
// LIABLE FOR ANY DIRECT, INDIRECT, INCIDENTAL, SPECIAL, EXEMPLARY, OR
// CONSEQUENTIAL DAMAGES (INCLUDING, BUT NOT LIMITED TO, PROCUREMENT OF
// SUBSTITUTE GOODS OR SERVICES; LOSS OF USE, DATA, OR PROFITS; OR BUSINESS
// INTERRUPTION) HOWEVER CAUSED AND ON ANY THEORY OF LIABILITY, WHETHER IN
// CONTRACT, STRICT LIABILITY, OR TORT (INCLUDING NEGLIGENCE OR OTHERWISE)
// ARISING IN ANY WAY OUT OF THE USE OF THIS SOFTWARE, EVEN IF ADVISED OF THE
// POSSIBILITY OF SUCH DAMAGE.

// Dragonfly
//




vc_buf_size = 256;


wait_for_tail_credit = 0;

//
// Router architecture
//
vc_allocator = separable_input_first; 
sw_allocator = separable_input_first;
alloc_iters  = 1;

credit_delay   = 2;
routing_delay  = 0;
vc_alloc_delay = 1;
sw_alloc_delay = 1;
st_final_delay = 1;

input_speedup     = 1;
output_speedup    = 1;
internal_speedup  = 2.0;


warmup_periods = 3;
sim_count          = 1;

sample_period  = 10000;  


routing_function = dor;
num_vcs     = 2;

priority = none;
traffic       = uniform; 

injection_rate = 0.85;
packet_size = 1;
injection_rate_uses_flits = 1;

topology = mesh;

k  = 8;
n  = 2;

fer = 3;
ecc = link;

watch_out=-;
//watch_file = watch.txt;

ecc = link;

stats_out = examples/ecc_mesh88_config_1_0.850_link_3.m;

END Configuration File: examples/ecc_mesh88_config_1_0.850_link_3
1
Received nack credit for flit 51
Requeued flit 51
6
2
1
Received nack credit for flit 90
Requeued flit 90
Received nack credit for flit 849
Requeued flit 849
Received nack credit for flit 1082
Requeued flit 1082
7
1
Received nack credit for flit 117
Requeued flit 117
1
Received nack credit for flit 1524
Requeued flit 1524
Received nack credit for flit 1536
Requeued flit 1536
1
1
Received nack credit for flit 1737
Requeued flit 1737
Received nack credit for flit 1643
Requeued flit 1643
5
3
Received nack credit for flit 1390
Requeued flit 1390
Received nack credit for flit 2647
Requeued flit 2647
1
1
Received nack credit for flit 2986
Requeued flit 2986
Received nack credit for flit 3249
Requeued flit 3249
1
Received nack credit for flit 4811
Requeued flit 4811
1
1
Received nack credit for flit 5274
Requeued flit 5274
2
Received nack credit for flit 4076
Requeued flit 4076
Received nack credit for flit 3058
Requeued flit 3058
1
4
Received nack credit for flit 5090
Requeued flit 5090
Received nack credit for flit 3180
Requeued flit 3180
1
1
2
2
Received nack credit for flit 6658
Requeued flit 6658
Received nack credit for flit 5318
Requeued flit 5318
Received nack credit for flit 3203
Requeued flit 3203
Received nack credit for flit 6292
Requeued flit 6292
1
3
2
Received nack credit for flit 8029
Requeued flit 8029
Received nack credit for flit 4701
Requeued flit 4701
Received nack credit for flit 6386
Requeued flit 6386
1
4
5
2
Received nack credit for flit 6473
Requeued flit 6473
Received nack credit for flit 5820
Requeued flit 5820
Received nack credit for flit 3648
Requeued flit 3648
Received nack credit for flit 8525
Requeued flit 8525
3
Received nack credit for flit 8284
Requeued flit 8284
1
3
Received nack credit for flit 11232
Requeued flit 11232
2
Received nack credit for flit 9093
Requeued flit 9093
Received nack credit for flit 6441
Requeued flit 6441
2
2
Received nack credit for flit 11971
Requeued flit 11971
7
Received nack credit for flit 7323
Requeued flit 7323
3
Received nack credit for flit 4781
Requeued flit 4781
Received nack credit for flit 8527
Requeued flit 8527
2
5
1
Received nack credit for flit 12602
Requeued flit 12602
Received nack credit for flit 10319
Requeued flit 10319
Received nack credit for flit 10684
Requeued flit 10684
2
Received nack credit for flit 7066
Requeued flit 7066
5
5
Received nack credit for flit 8747
Requeued flit 8747
6
1
Received nack credit for flit 7497
Requeued flit 7497
5
Received nack credit for flit 10585
Requeued flit 10585
Received nack credit for flit 5456
Requeued flit 5456
Received nack credit for flit 6468
Requeued flit 6468
2
1
Received nack credit for flit 9698
Requeued flit 9698
2
Received nack credit for flit 14755
Requeued flit 14755
4
Received nack credit for flit 11626
Requeued flit 11626
Received nack credit for flit 5899
Requeued flit 5899
2
1
1
Received nack credit for flit 9936
Requeued flit 9936
Received nack credit for flit 15650
Requeued flit 15650
Received nack credit for flit 13870
Requeued flit 13870
4
5
Received nack credit for flit 7251
Requeued flit 7251
1
Received nack credit for flit 11561
Requeued flit 11561
1
Received nack credit for flit 11950
Requeued flit 11950
Received nack credit for flit 12337
Requeued flit 12337
2
Received nack credit for flit 17027
Requeued flit 17027
1
Received nack credit for flit 17624
Requeued flit 17624
4
1
4
1
Received nack credit for flit 7768
Requeued flit 7768
Received nack credit for flit 18084
Requeued flit 18084
3
Received nack credit for flit 8351
Requeued flit 8351
Received nack credit for flit 18516
Requeued flit 18516
1
Received nack credit for flit 9851
Requeued flit 9851
Received nack credit for flit 15586
Requeued flit 15586
4
6
2
Received nack credit for flit 7367
Requeued flit 7367
Received nack credit for flit 8202
Requeued flit 8202
Received nack credit for flit 11944
Requeued flit 11944
2
1
1
Received nack credit for flit 15981
Requeued flit 15981
Received nack credit for flit 19658
Requeued flit 19658
Received nack credit for flit 19638
Requeued flit 19638
2
Received nack credit for flit 15141
Requeued flit 15141
8
1
8
Received nack credit for flit 13830
Requeued flit 13830
Received nack credit for flit 20777
Requeued flit 20777
1
1
1
Received nack credit for flit 16036
Requeued flit 16036
7
Received nack credit for flit 13717
Requeued flit 13717
Received nack credit for flit 17797
Requeued flit 17797
Received nack credit for flit 15492
Requeued flit 15492
1
Received nack credit for flit 11030
Requeued flit 11030
Received nack credit for flit 21602
Requeued flit 21602
1
1
2
Received nack credit for flit 20678
Requeued flit 20678
Received nack credit for flit 21882
Requeued flit 21882
Received nack credit for flit 22289
Requeued flit 22289
6
2
5
Received nack credit for flit 16523
Requeued flit 16523
Received nack credit for flit 18195
Requeued flit 18195
Received nack credit for flit 16722
Requeued flit 16722
8
1
Received nack credit for flit 7265
Requeued flit 7265
1
7
Received nack credit for flit 22797
Requeued flit 22797
3
Received nack credit for flit 18697
Requeued flit 18697
Received nack credit for flit 10365
Requeued flit 10365
Received nack credit for flit 12655
Requeued flit 12655
1
4
Received nack credit for flit 23996
Requeued flit 23996
1
Received nack credit for flit 16319
Requeued flit 16319
7
Received nack credit for flit 17512
Requeued flit 17512
Received nack credit for flit 17763
Requeued flit 17763
2
4
11
Received nack credit for flit 20406
Requeued flit 20406
3
Received nack credit for flit 7092
Requeued flit 7092
Received nack credit for flit 18225
Requeued flit 18225
Received nack credit for flit 24946
Requeued flit 24946
8
4
4
Received nack credit for flit 10422
Requeued flit 10422
Received nack credit for flit 11989
Requeued flit 11989
3
Received nack credit for flit 19410
Requeued flit 19410
4
Received nack credit for flit 19616
Requeued flit 19616
Received nack credit for flit 20771
Requeued flit 20771
3
2
Received nack credit for flit 14239
Requeued flit 14239
Received nack credit for flit 21910
Requeued flit 21910
4
1
1
Received nack credit for flit 12182
Requeued flit 12182
Received nack credit for flit 27181
Requeued flit 27181
Received nack credit for flit 27522
Requeued flit 27522
2
1
Received nack credit for flit 21023
Requeued flit 21023
Received nack credit for flit 22732
Requeued flit 22732
4
3
Received nack credit for flit 10533
Requeued flit 10533
Received nack credit for flit 20254
Requeued flit 20254
8
Received nack credit for flit 10624
Requeued flit 10624
1
Received nack credit for flit 23931
Requeued flit 23931
3
3
1
1
Received nack credit for flit 27932
Requeued flit 27932
Received nack credit for flit 17157
Requeued flit 17157
Received nack credit for flit 24544
Requeued flit 24544
Received nack credit for flit 31619
Requeued flit 31619
1
1
Received nack credit for flit 31924
Requeued flit 31924
Received nack credit for flit 32016
Requeued flit 32016
3
Received nack credit for flit 24073
Requeued flit 24073
2
Received nack credit for flit 19183
Requeued flit 19183
2
4
Received nack credit for flit 25025
Requeued flit 25025
1
Received nack credit for flit 19429
Requeued flit 19429
Received nack credit for flit 27261
Requeued flit 27261
4
1
Received nack credit for flit 25036
Requeued flit 25036
1
Received nack credit for flit 23871
Requeued flit 23871
3
Received nack credit for flit 24614
Requeued flit 24614
1
2
Received nack credit for flit 26555
Requeued flit 26555
Received nack credit for flit 31563
Requeued flit 31563
Received nack credit for flit 30730
Requeued flit 30730
1
4
Received nack credit for flit 24364
Requeued flit 24364
Received nack credit for flit 30793
Requeued flit 30793
1
1
1
Received nack credit for flit 35124
Requeued flit 35124
6
Received nack credit for flit 35202
Requeued flit 35202
Received nack credit for flit 35283
Requeued flit 35283
5
Received nack credit for flit 20458
Requeued flit 20458
Received nack credit for flit 23117
Requeued flit 23117
2
Received nack credit for flit 28513
Requeued flit 28513
2
2
Received nack credit for flit 36483
Requeued flit 36483
Received nack credit for flit 20323
Requeued flit 20323
1
11
1
3
Received nack credit for flit 37464
Requeued flit 37464
Received nack credit for flit 10912
Requeued flit 10912
Received nack credit for flit 37485
Requeued flit 37485
Received nack credit for flit 35065
Requeued flit 35065
3
3
Received nack credit for flit 17061
Requeued flit 17061
Received nack credit for flit 31475
Requeued flit 31475
3
3
Received nack credit for flit 29275
Requeued flit 29275
1
Received nack credit for flit 27227
Requeued flit 27227
3
Received nack credit for flit 38624
Requeued flit 38624
Received nack credit for flit 37303
Requeued flit 37303
6
3
1
Received nack credit for flit 16569
Requeued flit 16569
Received nack credit for flit 20912
Requeued flit 20912
1
Received nack credit for flit 31364
Requeued flit 31364
3
Received nack credit for flit 29891
Requeued flit 29891
Received nack credit for flit 17731
Requeued flit 17731
1
Received nack credit for flit 40034
Requeued flit 40034
4
1
Received nack credit for flit 17794
Requeued flit 17794
1
Received nack credit for flit 32056
Requeued flit 32056
Received nack credit for flit 32690
Requeued flit 32690
5
3
3
1
Received nack credit for flit 22080
Requeued flit 22080
Received nack credit for flit 32283
Requeued flit 32283
Received nack credit for flit 30837
Requeued flit 30837
5
Received nack credit for flit 41222
Requeued flit 41222
Received nack credit for flit 22056
Requeued flit 22056
3
Received nack credit for flit 41289
Requeued flit 41289
1
1
1
Received nack credit for flit 34222
Requeued flit 34222
1
Received nack credit for flit 40131
Requeued flit 40131
5
Received nack credit for flit 42939
Requeued flit 42939
Received nack credit for flit 43040
Requeued flit 43040
3
Received nack credit for flit 28009
Requeued flit 28009
6
1
Received nack credit for flit 38138
Requeued flit 38138
Received nack credit for flit 19233
Requeued flit 19233
Received nack credit for flit 43564
Requeued flit 43564
1
Received nack credit for flit 41749
Requeued flit 41749
2
Received nack credit for flit 26049
Requeued flit 26049
4
Received nack credit for flit 18423
Requeued flit 18423
2
3
5
Received nack credit for flit 37867
Requeued flit 37867
3
1
Received nack credit for flit 35749
Requeued flit 35749
1
1
2
Received nack credit for flit 20251
Requeued flit 20251
Received nack credit for flit 26026
Requeued flit 26026
Received nack credit for flit 46858
Requeued flit 46858
Received nack credit for flit 37641
Requeued flit 37641
Received nack credit for flit 33287
Requeued flit 33287
Received nack credit for flit 27010
Requeued flit 27010
4
4
Received nack credit for flit 21627
Requeued flit 21627
2
Received nack credit for flit 19982
Requeued flit 19982
1
Received nack credit for flit 28363
Requeued flit 28363
Received nack credit for flit 44602
Requeued flit 44602
1
3
2
7
Received nack credit for flit 34479
Requeued flit 34479
5
Received nack credit for flit 37551
Requeued flit 37551
Received nack credit for flit 37609
Requeued flit 37609
Received nack credit for flit 21280
Requeued flit 21280
5
Received nack credit for flit 26037
Requeued flit 26037
Received nack credit for flit 36003
Requeued flit 36003
2
Received nack credit for flit 29619
Requeued flit 29619
1
Received nack credit for flit 40071
Requeued flit 40071
1
2
2
Received nack credit for flit 39092
Requeued flit 39092
Received nack credit for flit 48947
Requeued flit 48947
Received nack credit for flit 39042
Requeued flit 39042
1
10
1
Received nack credit for flit 51083
Requeued flit 51083
Received nack credit for flit 51250
Requeued flit 51250
Received nack credit for flit 21148
Requeued flit 21148
1
1
Received nack credit for flit 37097
Requeued flit 37097
Received nack credit for flit 51664
Requeued flit 51664
1
Received nack credit for flit 41550
Requeued flit 41550
1
Received nack credit for flit 53056
Requeued flit 53056
1
Received nack credit for flit 53662
Requeued flit 53662
1
Received nack credit for flit 44083
Requeued flit 44083
1
2
Received nack credit for flit 45351
Requeued flit 45351
Received nack credit for flit 31133
Requeued flit 31133
9
1
3
Received nack credit for flit 16821
Requeued flit 16821
Received nack credit for flit 54862
Requeued flit 54862
Received nack credit for flit 37678
Requeued flit 37678
5
Received nack credit for flit 24779
Requeued flit 24779
3
Received nack credit for flit 43769
Requeued flit 43769
1
1
6
Received nack credit for flit 43422
Requeued flit 43422
1
Received nack credit for flit 30924
Requeued flit 30924
Received nack credit for flit 57024
Requeued flit 57024
2
7
Received nack credit for flit 54015
Requeued flit 54015
Received nack credit for flit 54330
Requeued flit 54330
Received nack credit for flit 25590
Requeued flit 25590
5
5
Received nack credit for flit 26291
Requeued flit 26291
1
1
1
Received nack credit for flit 23799
Requeued flit 23799
Received nack credit for flit 57147
Requeued flit 57147
Received nack credit for flit 58393
Requeued flit 58393
Received nack credit for flit 47335
Requeued flit 47335
1
1
5
2
Received nack credit for flit 55255
Requeued flit 55255
Received nack credit for flit 58393
Requeued flit 58393
Received nack credit for flit 44808
Requeued flit 44808
5
Received nack credit for flit 33067
Requeued flit 33067
Received nack credit for flit 32204
Requeued flit 32204
3
Received nack credit for flit 34359
Requeued flit 34359
1
1
5
6
Received nack credit for flit 54364
Requeued flit 54364
Received nack credit for flit 49538
Requeued flit 49538
Received nack credit for flit 28288
Requeued flit 28288
Received nack credit for flit 23185
Requeued flit 23185
1
1
2
Received nack credit for flit 47038
Requeued flit 47038
Received nack credit for flit 60612
Requeued flit 60612
Received nack credit for flit 48017
Requeued flit 48017
1
7
Received nack credit for flit 61700
Requeued flit 61700
1
5
Received nack credit for flit 43921
Requeued flit 43921
Received nack credit for flit 27136
Requeued flit 27136
3
Received nack credit for flit 27320
Requeued flit 27320
Received nack credit for flit 50941
Requeued flit 50941
6
1
Received nack credit for flit 35013
Requeued flit 35013
2
1
Received nack credit for flit 63086
Requeued flit 63086
Received nack credit for flit 48623
Requeued flit 48623
2
Received nack credit for flit 63199
Requeued flit 63199
Received nack credit for flit 50255
Requeued flit 50255
1
5
Received nack credit for flit 60584
Requeued flit 60584
1
Received nack credit for flit 32816
Requeued flit 32816
1
Received nack credit for flit 47616
Requeued flit 47616
1
Received nack credit for flit 49673
Requeued flit 49673
Received nack credit for flit 57196
Requeued flit 57196
1
Received nack credit for flit 58778
Requeued flit 58778
8
9
Received nack credit for flit 35624
Requeued flit 35624
6
Received nack credit for flit 27748
Requeued flit 27748
Received nack credit for flit 28327
Requeued flit 28327
2
Received nack credit for flit 65948
Requeued flit 65948
1
Received nack credit for flit 66951
Requeued flit 66951
2
1
5
2
Received nack credit for flit 52353
Requeued flit 52353
Received nack credit for flit 66832
Requeued flit 66832
Received nack credit for flit 29881
Requeued flit 29881
1
Received nack credit for flit 67193
Requeued flit 67193
Received nack credit for flit 53083
Requeued flit 53083
3
Received nack credit for flit 38171
Requeued flit 38171
2
5
Received nack credit for flit 67595
Requeued flit 67595
Received nack credit for flit 41713
Requeued flit 41713
3
9
Received nack credit for flit 53795
Requeued flit 53795
3
5
Received nack credit for flit 34289
Requeued flit 34289
3
Received nack credit for flit 29264
Requeued flit 29264
Received nack credit for flit 62310
Requeued flit 62310
2
Received nack credit for flit 31973
Requeued flit 31973
1
2
Received nack credit for flit 57653
Requeued flit 57653
Received nack credit for flit 69037
Requeued flit 69037
Received nack credit for flit 40591
Requeued flit 40591
3
2
Received nack credit for flit 39692
Requeued flit 39692
Received nack credit for flit 66678
Requeued flit 66678
3
3
Received nack credit for flit 39309
Requeued flit 39309
3
Received nack credit for flit 66346
Requeued flit 66346
Received nack credit for flit 65209
Requeued flit 65209
1
2
1
7
Received nack credit for flit 71208
Requeued flit 71208
Received nack credit for flit 55603
Requeued flit 55603
3
5
Received nack credit for flit 67802
Requeued flit 67802
3
1
Received nack credit for flit 37079
Requeued flit 37079
Received nack credit for flit 57472
Requeued flit 57472
1
Received nack credit for flit 66678
Requeued flit 66678
6
Received nack credit for flit 41553
Requeued flit 41553
Received nack credit for flit 72269
Requeued flit 72269
12
Received nack credit for flit 66997
Requeued flit 66997
Received nack credit for flit 20810
Requeued flit 20810
Received nack credit for flit 63844
Requeued flit 63844
2
1
6
4
Received nack credit for flit 40816
Requeued flit 40816
4
Received nack credit for flit 73068
Requeued flit 73068
7
Received nack credit for flit 51801
Requeued flit 51801
Received nack credit for flit 61320
Requeued flit 61320
Received nack credit for flit 52743
Requeued flit 52743
Received nack credit for flit 46373
Requeued flit 46373
1
1
1
Received nack credit for flit 73762
Requeued flit 73762
1
Received nack credit for flit 58192
Requeued flit 58192
4
Received nack credit for flit 66286
Requeued flit 66286
Received nack credit for flit 35196
Requeued flit 35196
3
Received nack credit for flit 73960
Requeued flit 73960
3
Received nack credit for flit 34335
Requeued flit 34335
2
2
Received nack credit for flit 69049
Requeued flit 69049
3
Received nack credit for flit 43598
Requeued flit 43598
1
Received nack credit for flit 74644
Requeued flit 74644
Received nack credit for flit 69923
Requeued flit 69923
Received nack credit for flit 57416
Requeued flit 57416
1
1
5
Received nack credit for flit 61425
Requeued flit 61425
Received nack credit for flit 59824
Requeued flit 59824
Received nack credit for flit 42941
Requeued flit 42941
1
Received nack credit for flit 75818
Requeued flit 75818
1
Received nack credit for flit 76641
Requeued flit 76641
1
6
Received nack credit for flit 70542
Requeued flit 70542
3
Received nack credit for flit 52588
Requeued flit 52588
6
Received nack credit for flit 72560
Requeued flit 72560
Received nack credit for flit 33289
Requeued flit 33289
4
1
1
1
Received nack credit for flit 36504
Requeued flit 36504
Received nack credit for flit 63155
Requeued flit 63155
1
Received nack credit for flit 77364
Requeued flit 77364
Received nack credit for flit 77520
Requeued flit 77520
Received nack credit for flit 78229
Requeued flit 78229
9
1
Received nack credit for flit 35172
Requeued flit 35172
Received nack credit for flit 78233
Requeued flit 78233
1
1
1
1
Received nack credit for flit 72105
Requeued flit 72105
Received nack credit for flit 79227
Requeued flit 79227
Received nack credit for flit 58829
Requeued flit 58829
Received nack credit for flit 65326
Requeued flit 65326
5
3
7
Received nack credit for flit 35258
Requeued flit 35258
Received nack credit for flit 36962
Requeued flit 36962
10
Received nack credit for flit 48429
Requeued flit 48429
1
Received nack credit for flit 26580
Requeued flit 26580
7
3
3
Received nack credit for flit 59820
Requeued flit 59820
Received nack credit for flit 54451
Requeued flit 54451
Received nack credit for flit 45219
Requeued flit 45219
Received nack credit for flit 80081
Requeued flit 80081
1
1
Received nack credit for flit 63433
Requeued flit 63433
3
Received nack credit for flit 81144
Requeued flit 81144
Received nack credit for flit 62034
Requeued flit 62034
2
2
2
Received nack credit for flit 68393
Requeued flit 68393
Received nack credit for flit 64162
Requeued flit 64162
Received nack credit for flit 66028
Requeued flit 66028
7
Received nack credit for flit 34290
Requeued flit 34290
2
3
3
1
Received nack credit for flit 46949
Requeued flit 46949
Received nack credit for flit 48379
Requeued flit 48379
Received nack credit for flit 45795
Requeued flit 45795
1
Received nack credit for flit 82991
Requeued flit 82991
Received nack credit for flit 60798
Requeued flit 60798
6
Received nack credit for flit 39429
Requeued flit 39429
1
1
Received nack credit for flit 61592
Requeued flit 61592
2
2
Received nack credit for flit 79677
Requeued flit 79677
Received nack credit for flit 49868
Requeued flit 49868
Received nack credit for flit 64104
Requeued flit 64104
3
3
Received nack credit for flit 47489
Requeued flit 47489
Received nack credit for flit 48730
Requeued flit 48730
5
5
Received nack credit for flit 63208
Requeued flit 63208
Received nack credit for flit 48716
Requeued flit 48716
7
1
2
Received nack credit for flit 60943
Requeued flit 60943
1
Received nack credit for flit 76964
Requeued flit 76964
Received nack credit for flit 73292
Requeued flit 73292
Received nack credit for flit 86233
Requeued flit 86233
5
Received nack credit for flit 41817
Requeued flit 41817
2
Received nack credit for flit 87080
Requeued flit 87080
1
1
Received nack credit for flit 71786
Requeued flit 71786
2
Received nack credit for flit 85927
Requeued flit 85927
Received nack credit for flit 70152
Requeued flit 70152
1
2
3
1
6
Received nack credit for flit 83369
Requeued flit 83369
Received nack credit for flit 49248
Requeued flit 49248
1
1
Received nack credit for flit 87101
Requeued flit 87101
Received nack credit for flit 63496
Requeued flit 63496
Received nack credit for flit 64989
Requeued flit 64989
2
Received nack credit for flit 87777
Requeued flit 87777
1
Received nack credit for flit 89440
Requeued flit 89440
Received nack credit for flit 84056
Requeued flit 84056
2
Received nack credit for flit 65940
Requeued flit 65940
2
Received nack credit for flit 89698
Requeued flit 89698
Received nack credit for flit 52924
Requeued flit 52924
4
5
2
Received nack credit for flit 83552
Requeued flit 83552
Received nack credit for flit 41149
Requeued flit 41149
1
6
Received nack credit for flit 87249
Requeued flit 87249
Received nack credit for flit 89387
Requeued flit 89387
Received nack credit for flit 40845
Requeued flit 40845
6
Received nack credit for flit 65282
Requeued flit 65282
4
1
Received nack credit for flit 68185
Requeued flit 68185
Received nack credit for flit 88373
Requeued flit 88373
1
Received nack credit for flit 75770
Requeued flit 75770
1
1
Received nack credit for flit 92820
Requeued flit 92820
Received nack credit for flit 67220
Requeued flit 67220
8
2
Received nack credit for flit 35067
Requeued flit 35067
Received nack credit for flit 72252
Requeued flit 72252
1
Received nack credit for flit 92961
Requeued flit 92961
1
1
1
Received nack credit for flit 95054
Requeued flit 95054
Received nack credit for flit 93201
Requeued flit 93201
1
Received nack credit for flit 75357
Requeued flit 75357
1
Received nack credit for flit 77471
Requeued flit 77471
Received nack credit for flit 89112
Requeued flit 89112
11
3
Received nack credit for flit 28425
Requeued flit 28425
1
2
Received nack credit for flit 94538
Requeued flit 94538
Received nack credit for flit 70501
Requeued flit 70501
Received nack credit for flit 96293
Requeued flit 96293
3
2
Received nack credit for flit 73799
Requeued flit 73799
Received nack credit for flit 89910
Requeued flit 89910
1
1
Received nack credit for flit 76316
Requeued flit 76316
Received nack credit for flit 77432
Requeued flit 77432
1
5
4
6
Received nack credit for flit 80741
Requeued flit 80741
Received nack credit for flit 72827
Requeued flit 72827
Received nack credit for flit 55362
Requeued flit 55362
Received nack credit for flit 73048
Requeued flit 73048
1
Received nack credit for flit 71733
Requeued flit 71733
1
3
7
1
Received nack credit for flit 92709
Requeued flit 92709
Received nack credit for flit 96535
Requeued flit 96535
Received nack credit for flit 55461
Requeued flit 55461
Received nack credit for flit 92066
Requeued flit 92066
3
6
1
3
3
1
Received nack credit for flit 70444
Requeued flit 70444
Received nack credit for flit 91997
Requeued flit 91997
Received nack credit for flit 77375
Requeued flit 77375
Received nack credit for flit 83026
Requeued flit 83026
Received nack credit for flit 78603
Requeued flit 78603
Received nack credit for flit 57720
Requeued flit 57720
2
1
Received nack credit for flit 94322
Requeued flit 94322
Received nack credit for flit 82810
Requeued flit 82810
5
8
Received nack credit for flit 79145
Requeued flit 79145
2
Received nack credit for flit 44141
Requeued flit 44141
Received nack credit for flit 78177
Requeued flit 78177
7
3
3
Received nack credit for flit 69049
Requeued flit 69049
Received nack credit for flit 58022
Requeued flit 58022
Received nack credit for flit 58314
Requeued flit 58314
2
Received nack credit for flit 77147
Requeued flit 77147
1
2
4
Received nack credit for flit 58629
Requeued flit 58629
Received nack credit for flit 96062
Requeued flit 96062
1
Received nack credit for flit 80957
Requeued flit 80957
Received nack credit for flit 87670
Requeued flit 87670
2
2
1
Received nack credit for flit 80716
Requeued flit 80716
4
Received nack credit for flit 61012
Requeued flit 61012
Received nack credit for flit 92063
Requeued flit 92063
Received nack credit for flit 65851
Requeued flit 65851
1
3
Received nack credit for flit 81523
Requeued flit 81523
3
Received nack credit for flit 78296
Requeued flit 78296
1
Received nack credit for flit 49078
Requeued flit 49078
1
5
3
Received nack credit for flit 104306
Requeued flit 104306
Received nack credit for flit 83147
Requeued flit 83147
7
Received nack credit for flit 45763
Requeued flit 45763
Received nack credit for flit 59437
Requeued flit 59437
Received nack credit for flit 47117
Requeued flit 47117
1
2
4
Received nack credit for flit 84475
Requeued flit 84475
Received nack credit for flit 96901
Requeued flit 96901
Received nack credit for flit 79242
Requeued flit 79242
8
4
1
Received nack credit for flit 43453
Requeued flit 43453
Received nack credit for flit 86916
Requeued flit 86916
Received nack credit for flit 58338
Requeued flit 58338
5
1
1
1
Received nack credit for flit 79308
Requeued flit 79308
Received nack credit for flit 79577
Requeued flit 79577
1
Received nack credit for flit 50422
Requeued flit 50422
1
Received nack credit for flit 81793
Requeued flit 81793
Received nack credit for flit 87825
Requeued flit 87825
Received nack credit for flit 85097
Requeued flit 85097
2
Received nack credit for flit 66397
Requeued flit 66397
1
1
1
Received nack credit for flit 104545
Requeued flit 104545
Received nack credit for flit 87395
Requeued flit 87395
4
1
Received nack credit for flit 108779
Requeued flit 108779
8
Received nack credit for flit 92126
Requeued flit 92126
5
4
Received nack credit for flit 42313
Requeued flit 42313
Received nack credit for flit 85186
Requeued flit 85186
Received nack credit for flit 88252
Requeued flit 88252
Received nack credit for flit 51690
Requeued flit 51690
2
3
Received nack credit for flit 61960
Requeued flit 61960
Received nack credit for flit 83405
Requeued flit 83405
7
4
3
Received nack credit for flit 50772
Requeued flit 50772
Received nack credit for flit 61558
Requeued flit 61558
Received nack credit for flit 57911
Requeued flit 57911
6
10
Received nack credit for flit 48162
Requeued flit 48162
4
5
1
Received nack credit for flit 45057
Requeued flit 45057
Received nack credit for flit 71738
Requeued flit 71738
Received nack credit for flit 90501
Requeued flit 90501
Received nack credit for flit 61911
Requeued flit 61911
2
Received nack credit for flit 87501
Requeued flit 87501
2
1
Received nack credit for flit 86285
Requeued flit 86285
Received nack credit for flit 88377
Requeued flit 88377
1
Received nack credit for flit 96737
Requeued flit 96737
2
4
5
1
Received nack credit for flit 64858
Requeued flit 64858
Received nack credit for flit 104011
Requeued flit 104011
Received nack credit for flit 85943
Requeued flit 85943
Received nack credit for flit 92185
Requeued flit 92185
1
1
Received nack credit for flit 109966
Requeued flit 109966
2
4
3
Received nack credit for flit 105409
Requeued flit 105409
Received nack credit for flit 91532
Requeued flit 91532
2
Received nack credit for flit 90783
Requeued flit 90783
2
Received nack credit for flit 96133
Requeued flit 96133
Received nack credit for flit 65348
Requeued flit 65348
Received nack credit for flit 88445
Requeued flit 88445
3
5
1
1
Received nack credit for flit 86654
Requeued flit 86654
Received nack credit for flit 86434
Requeued flit 86434
4
Received nack credit for flit 110486
Requeued flit 110486
Received nack credit for flit 110872
Requeued flit 110872
2
Received nack credit for flit 89476
Requeued flit 89476
2
Received nack credit for flit 67032
Requeued flit 67032
Received nack credit for flit 64648
Requeued flit 64648
3
9
1
3
Received nack credit for flit 65753
Requeued flit 65753
3
Received nack credit for flit 40177
Requeued flit 40177
3
Received nack credit for flit 111535
Requeued flit 111535
Received nack credit for flit 83622
Requeued flit 83622
Received nack credit for flit 72104
Requeued flit 72104
Received nack credit for flit 66275
Requeued flit 66275
1
1
Received nack credit for flit 117639
Requeued flit 117639
3
4
1
Received nack credit for flit 88555
Requeued flit 88555
Received nack credit for flit 56714
Requeued flit 56714
4
Received nack credit for flit 104713
Requeued flit 104713
Received nack credit for flit 118159
Requeued flit 118159
7
Received nack credit for flit 56293
Requeued flit 56293
7
1
Received nack credit for flit 90112
Requeued flit 90112
Received nack credit for flit 50872
Requeued flit 50872
1
1
Received nack credit for flit 119350
Requeued flit 119350
Received nack credit for flit 119574
Requeued flit 119574
1
Received nack credit for flit 119859
Requeued flit 119859
1
1
Received nack credit for flit 90966
Requeued flit 90966
3
4
Received nack credit for flit 90893
Requeued flit 90893
1
1
Received nack credit for flit 91941
Requeued flit 91941
Received nack credit for flit 66566
Requeued flit 66566
Received nack credit for flit 118460
Requeued flit 118460
Received nack credit for flit 120663
Requeued flit 120663
1
4
3
3
1
Received nack credit for flit 91666
Requeued flit 91666
Received nack credit for flit 105940
Requeued flit 105940
Received nack credit for flit 93303
Requeued flit 93303
Received nack credit for flit 78746
Requeued flit 78746
Received nack credit for flit 93834
Requeued flit 93834
8
1
5
Received nack credit for flit 88138
Requeued flit 88138
1
Received nack credit for flit 121973
Requeued flit 121973
1
Received nack credit for flit 70374
Requeued flit 70374
Received nack credit for flit 94488
Requeued flit 94488
Received nack credit for flit 95740
Requeued flit 95740
1
3
Received nack credit for flit 123550
Requeued flit 123550
1
5
Received nack credit for flit 74189
Requeued flit 74189
Received nack credit for flit 97878
Requeued flit 97878
Received nack credit for flit 76364
Requeued flit 76364
1
4
Received nack credit for flit 100942
Requeued flit 100942
Received nack credit for flit 54600
Requeued flit 54600
2
Received nack credit for flit 98435
Requeued flit 98435
4
4
Received nack credit for flit 59519
Requeued flit 59519
Received nack credit for flit 75340
Requeued flit 75340
1
Received nack credit for flit 101594
Requeued flit 101594
1
1
Received nack credit for flit 126205
Requeued flit 126205
9
Received nack credit for flit 126179
Requeued flit 126179
1
Received nack credit for flit 59005
Requeued flit 59005
Received nack credit for flit 98393
Requeued flit 98393
1
1
2
Received nack credit for flit 104018
Requeued flit 104018
7
Received nack credit for flit 75902
Requeued flit 75902
3
Received nack credit for flit 51323
Requeued flit 51323
Received nack credit for flit 96213
Requeued flit 96213
2
Received nack credit for flit 127194
Requeued flit 127194
2
Received nack credit for flit 122520
Requeued flit 122520
6
Received nack credit for flit 104254
Requeued flit 104254
Received nack credit for flit 55952
Requeued flit 55952
1
5
6
1
Received nack credit for flit 89173
Requeued flit 89173
Received nack credit for flit 122478
Requeued flit 122478
Received nack credit for flit 56125
Requeued flit 56125
Received nack credit for flit 99266
Requeued flit 99266
1
Received nack credit for flit 104300
Requeued flit 104300
5
2
1
Received nack credit for flit 72399
Requeued flit 72399
5
Received nack credit for flit 80428
Requeued flit 80428
Received nack credit for flit 126561
Requeued flit 126561
Received nack credit for flit 99985
Requeued flit 99985
4
1
Received nack credit for flit 98170
Requeued flit 98170
Received nack credit for flit 99810
Requeued flit 99810
5
Received nack credit for flit 89273
Requeued flit 89273
4
1
Received nack credit for flit 120578
Requeued flit 120578
Received nack credit for flit 131765
Requeued flit 131765
5
1
1
Received nack credit for flit 70934
Requeued flit 70934
Received nack credit for flit 101342
Requeued flit 101342
Received nack credit for flit 100770
Requeued flit 100770
2
Received nack credit for flit 125020
Requeued flit 125020
2
5
1
2
Received nack credit for flit 82495
Requeued flit 82495
Received nack credit for flit 79537
Requeued flit 79537
4
Received nack credit for flit 102894
Requeued flit 102894
Received nack credit for flit 102388
Requeued flit 102388
Received nack credit for flit 124088
Requeued flit 124088
5
2
Received nack credit for flit 102214
Requeued flit 102214
2
1
5
Received nack credit for flit 106489
Requeued flit 106489
Received nack credit for flit 83377
Requeued flit 83377
Received nack credit for flit 119254
Requeued flit 119254
Received nack credit for flit 108454
Requeued flit 108454
2
7
Received nack credit for flit 102921
Requeued flit 102921
Received nack credit for flit 56017
Requeued flit 56017
1
1
2
Received nack credit for flit 135838
Requeued flit 135838
Received nack credit for flit 111845
Requeued flit 111845
1
Received nack credit for flit 103524
Requeued flit 103524
1
3
4
Received nack credit for flit 136309
Requeued flit 136309
Received nack credit for flit 77170
Requeued flit 77170
Received nack credit for flit 109823
Requeued flit 109823
Received nack credit for flit 96719
Requeued flit 96719
4
2
5
Received nack credit for flit 76825
Requeued flit 76825
7
7
6
Received nack credit for flit 137561
Requeued flit 137561
Received nack credit for flit 104443
Requeued flit 104443
Received nack credit for flit 59782
Requeued flit 59782
1
5
Received nack credit for flit 59253
Requeued flit 59253
Received nack credit for flit 78892
Requeued flit 78892
Received nack credit for flit 138437
Requeued flit 138437
Received nack credit for flit 58500
Requeued flit 58500
4
9
7
Received nack credit for flit 104724
Requeued flit 104724
Received nack credit for flit 67480
Requeued flit 67480
Received nack credit for flit 100070
Requeued flit 100070
1
Received nack credit for flit 140020
Requeued flit 140020
1
4
Received nack credit for flit 110906
Requeued flit 110906
Received nack credit for flit 66731
Requeued flit 66731
1
2
Received nack credit for flit 109146
Requeued flit 109146
6
Received nack credit for flit 102325
Requeued flit 102325
Received nack credit for flit 60995
Requeued flit 60995
2
Received nack credit for flit 135182
Requeued flit 135182
9
1
Received nack credit for flit 58630
Requeued flit 58630
9
Received nack credit for flit 142986
Requeued flit 142986
5
1
2
Received nack credit for flit 70129
Requeued flit 70129
Received nack credit for flit 89959
Requeued flit 89959
Received nack credit for flit 132482
Requeued flit 132482
Received nack credit for flit 64989
Requeued flit 64989
5
1
Received nack credit for flit 105620
Requeued flit 105620
Received nack credit for flit 133749
Requeued flit 133749
10
5
Received nack credit for flit 62233
Requeued flit 62233
1
4
Received nack credit for flit 118205
Requeued flit 118205
4
Received nack credit for flit 114278
Requeued flit 114278
Received nack credit for flit 75666
Requeued flit 75666
Received nack credit for flit 110269
Requeued flit 110269
9
Received nack credit for flit 80511
Requeued flit 80511
4
Received nack credit for flit 107580
Requeued flit 107580
3
4
Received nack credit for flit 79457
Requeued flit 79457
Received nack credit for flit 67046
Requeued flit 67046
6
1
3
Received nack credit for flit 63080
Requeued flit 63080
Received nack credit for flit 81251
Requeued flit 81251
Received nack credit for flit 146785
Requeued flit 146785
3
1
Received nack credit for flit 113350
Requeued flit 113350
1
Received nack credit for flit 114775
Requeued flit 114775
11
Received nack credit for flit 147686
Requeued flit 147686
1
1
Received nack credit for flit 61205
Requeued flit 61205
Received nack credit for flit 148123
Requeued flit 148123
Received nack credit for flit 131516
Requeued flit 131516
9
4
4
Received nack credit for flit 54338
Requeued flit 54338
6
Received nack credit for flit 88342
Requeued flit 88342
Received nack credit for flit 112546
Requeued flit 112546
Received nack credit for flit 61541
Requeued flit 61541
1
Received nack credit for flit 134412
Requeued flit 134412
5
3
3
Received nack credit for flit 117791
Requeued flit 117791
Received nack credit for flit 112764
Requeued flit 112764
Received nack credit for flit 113960
Requeued flit 113960
2
Received nack credit for flit 80091
Requeued flit 80091
6
Received nack credit for flit 123821
Requeued flit 123821
4
1
Received nack credit for flit 79437
Requeued flit 79437
Received nack credit for flit 143066
Requeued flit 143066
6
Received nack credit for flit 124984
Requeued flit 124984
1
1
4
Received nack credit for flit 150303
Requeued flit 150303
Received nack credit for flit 134083
Requeued flit 134083
Received nack credit for flit 68996
Requeued flit 68996
4
Received nack credit for flit 73503
Requeued flit 73503
2
1
12
Received nack credit for flit 96532
Requeued flit 96532
2
Received nack credit for flit 126371
Requeued flit 126371
Received nack credit for flit 48819
Requeued flit 48819
1
Received nack credit for flit 142085
Requeued flit 142085
5
1
Received nack credit for flit 125790
Requeued flit 125790
Received nack credit for flit 122940
Requeued flit 122940
Received nack credit for flit 128178
Requeued flit 128178
8
11
2
2
Received nack credit for flit 49141
Requeued flit 49141
Received nack credit for flit 117608
Requeued flit 117608
3
Received nack credit for flit 114046
Requeued flit 114046
Received nack credit for flit 93838
Requeued flit 93838
1
Received nack credit for flit 82708
Requeued flit 82708
4
Received nack credit for flit 86944
Requeued flit 86944
Received nack credit for flit 143033
Requeued flit 143033
6
5
Received nack credit for flit 66134
Requeued flit 66134
Received nack credit for flit 76779
Requeued flit 76779
2
Received nack credit for flit 94886
Requeued flit 94886
2
10
3
Received nack credit for flit 84761
Requeued flit 84761
Received nack credit for flit 89562
Requeued flit 89562
4
2
Received nack credit for flit 91941
Requeued flit 91941
1
Received nack credit for flit 113277
Requeued flit 113277
1
Received nack credit for flit 154640
Requeued flit 154640
Received nack credit for flit 154905
Requeued flit 154905
4
Received nack credit for flit 130404
Requeued flit 130404
Received nack credit for flit 89835
Requeued flit 89835
3
7
Received nack credit for flit 87942
Requeued flit 87942
3
Received nack credit for flit 87926
Requeued flit 87926
3
Received nack credit for flit 70770
Requeued flit 70770
Received nack credit for flit 136738
Requeued flit 136738
1
Received nack credit for flit 148248
Requeued flit 148248
2
1
5
1
Received nack credit for flit 100275
Requeued flit 100275
Received nack credit for flit 132876
Requeued flit 132876
Received nack credit for flit 128165
Requeued flit 128165
Received nack credit for flit 123716
Requeued flit 123716
1
5
8
4
Received nack credit for flit 116338
Requeued flit 116338
Received nack credit for flit 145105
Requeued flit 145105
4
Received nack credit for flit 132689
Requeued flit 132689
Received nack credit for flit 69913
Requeued flit 69913
8
Received nack credit for flit 150286
Requeued flit 150286
Received nack credit for flit 64329
Requeued flit 64329
1
1
8
4
Received nack credit for flit 156584
Requeued flit 156584
Received nack credit for flit 62211
Requeued flit 62211
Received nack credit for flit 144985
Requeued flit 144985
Received nack credit for flit 90285
Requeued flit 90285
1
Received nack credit for flit 148653
Requeued flit 148653
2
Received nack credit for flit 144933
Requeued flit 144933
3
Received nack credit for flit 130152
Requeued flit 130152
6
1
1
3
Received nack credit for flit 78849
Requeued flit 78849
Received nack credit for flit 130334
Requeued flit 130334
Received nack credit for flit 123903
Requeued flit 123903
Received nack credit for flit 154787
Requeued flit 154787
2
Received nack credit for flit 108474
Requeued flit 108474
5
7
7
Received nack credit for flit 126452
Requeued flit 126452
4
Received nack credit for flit 101764
Requeued flit 101764
Received nack credit for flit 127373
Requeued flit 127373
Received nack credit for flit 122921
Requeued flit 122921
4
2
Received nack credit for flit 99199
Requeued flit 99199
Received nack credit for flit 156355
Requeued flit 156355
1
3
Received nack credit for flit 116698
Requeued flit 116698
3
Received nack credit for flit 128848
Requeued flit 128848
1
Received nack credit for flit 125406
Requeued flit 125406
2
2
Received nack credit for flit 139737
Requeued flit 139737
Received nack credit for flit 139712
Requeued flit 139712
Received nack credit for flit 113943
Requeued flit 113943
5
Received nack credit for flit 73993
Requeued flit 73993
7
1
Received nack credit for flit 74357
Requeued flit 74357
Received nack credit for flit 154989
Requeued flit 154989
1
Received nack credit for flit 134566
Requeued flit 134566
2
Received nack credit for flit 92762
Requeued flit 92762
1
1
Received nack credit for flit 142183
Requeued flit 142183
Received nack credit for flit 121105
Requeued flit 121105
1
5
Received nack credit for flit 156687
Requeued flit 156687
Received nack credit for flit 72082
Requeued flit 72082
4
1
3
Received nack credit for flit 99638
Requeued flit 99638
Received nack credit for flit 116974
Requeued flit 116974
5
3
Received nack credit for flit 131026
Requeued flit 131026
Received nack credit for flit 148441
Requeued flit 148441
Received nack credit for flit 91589
Requeued flit 91589
2
1
Received nack credit for flit 159198
Requeued flit 159198
5
4
Received nack credit for flit 140015
Requeued flit 140015
Received nack credit for flit 70124
Requeued flit 70124
Received nack credit for flit 113121
Requeued flit 113121
1
Received nack credit for flit 144618
Requeued flit 144618
6
6
6
Received nack credit for flit 127036
Requeued flit 127036
Received nack credit for flit 152221
Requeued flit 152221
Received nack credit for flit 72357
Requeued flit 72357
1
1
Received nack credit for flit 147194
Requeued flit 147194
4
Received nack credit for flit 145563
Requeued flit 145563
Received nack credit for flit 116593
Requeued flit 116593
8
4
4
Received nack credit for flit 79155
Requeued flit 79155
Received nack credit for flit 111238
Requeued flit 111238
Received nack credit for flit 76052
Requeued flit 76052
2
7
Received nack credit for flit 122122
Requeued flit 122122
Received nack credit for flit 137734
Requeued flit 137734
4
Received nack credit for flit 134676
Requeued flit 134676
1
5
9
Received nack credit for flit 142713
Requeued flit 142713
1
Received nack credit for flit 123231
Requeued flit 123231
Received nack credit for flit 68211
Requeued flit 68211
Received nack credit for flit 148344
Requeued flit 148344
4
2
Received nack credit for flit 113247
Requeued flit 113247
Received nack credit for flit 151185
Requeued flit 151185
2
5
12
Received nack credit for flit 136712
Requeued flit 136712
1
Received nack credit for flit 66327
Requeued flit 66327
Received nack credit for flit 155250
Requeued flit 155250
1
3
3
Received nack credit for flit 150271
Requeued flit 150271
Received nack credit for flit 143885
Requeued flit 143885
3
Received nack credit for flit 106442
Requeued flit 106442
Received nack credit for flit 125079
Requeued flit 125079
8
6
5
Received nack credit for flit 70880
Requeued flit 70880
Received nack credit for flit 129347
Requeued flit 129347
4
Received nack credit for flit 122307
Requeued flit 122307
Received nack credit for flit 108122
Requeued flit 108122
Received nack credit for flit 87261
Requeued flit 87261
2
1
Received nack credit for flit 174185
Requeued flit 174185
5
Received nack credit for flit 164507
Requeued flit 164507
4
1
4
1
Received nack credit for flit 139794
Requeued flit 139794
Received nack credit for flit 90330
Requeued flit 90330
Received nack credit for flit 157959
Requeued flit 157959
4
Received nack credit for flit 151255
Requeued flit 151255
Received nack credit for flit 141239
Requeued flit 141239
4
Received nack credit for flit 111443
Requeued flit 111443
Received nack credit for flit 103853
Requeued flit 103853
2
Received nack credit for flit 152649
Requeued flit 152649
3
5
1
Received nack credit for flit 136650
Requeued flit 136650
1
Received nack credit for flit 116673
Requeued flit 116673
Received nack credit for flit 126827
Requeued flit 126827
Received nack credit for flit 157089
Requeued flit 157089
10
1
Received nack credit for flit 64510
Requeued flit 64510
Received nack credit for flit 125408
Requeued flit 125408
1
Received nack credit for flit 146661
Requeued flit 146661
5
Received nack credit for flit 95847
Requeued flit 95847
1
1
Received nack credit for flit 124712
Requeued flit 124712
Received nack credit for flit 168161
Requeued flit 168161
1
2
2
Received nack credit for flit 148323
Requeued flit 148323
6
Received nack credit for flit 126047
Requeued flit 126047
Received nack credit for flit 114606
Requeued flit 114606
Received nack credit for flit 78640
Requeued flit 78640
3
Received nack credit for flit 159304
Requeued flit 159304
5
Received nack credit for flit 137960
Requeued flit 137960
3
5
Received nack credit for flit 146669
Requeued flit 146669
Received nack credit for flit 99902
Requeued flit 99902
2
1
4
6
Received nack credit for flit 126749
Requeued flit 126749
Received nack credit for flit 153581
Requeued flit 153581
5
Received nack credit for flit 104052
Requeued flit 104052
Received nack credit for flit 170140
Requeued flit 170140
Received nack credit for flit 74388
Requeued flit 74388
3
5
5
2
Received nack credit for flit 101376
Requeued flit 101376
1
3
Received nack credit for flit 171202
Requeued flit 171202
Received nack credit for flit 163598
Requeued flit 163598
Received nack credit for flit 151026
Requeued flit 151026
Received nack credit for flit 173040
Requeued flit 173040
11
4
Received nack credit for flit 64790
Requeued flit 64790
Received nack credit for flit 82280
Requeued flit 82280
6
Received nack credit for flit 143005
Requeued flit 143005
4
Received nack credit for flit 147630
Requeued flit 147630
6
Received nack credit for flit 107809
Requeued flit 107809
9
6
Received nack credit for flit 68211
Requeued flit 68211
1
3
Received nack credit for flit 141252
Requeued flit 141252
2
Received nack credit for flit 154509
Requeued flit 154509
Received nack credit for flit 106903
Requeued flit 106903
4
Received nack credit for flit 95740
Requeued flit 95740
Received nack credit for flit 122443
Requeued flit 122443
1
Received nack credit for flit 164179
Requeued flit 164179
10
1
2
Received nack credit for flit 126345
Requeued flit 126345
Received nack credit for flit 166819
Requeued flit 166819
Received nack credit for flit 142638
Requeued flit 142638
1
6
Received nack credit for flit 103153
Requeued flit 103153
Received nack credit for flit 129389
Requeued flit 129389
11
Received nack credit for flit 119891
Requeued flit 119891
2
Received nack credit for flit 164571
Requeued flit 164571
3
1
4
Received nack credit for flit 162527
Requeued flit 162527
Received nack credit for flit 161457
Requeued flit 161457
Received nack credit for flit 156310
Requeued flit 156310
1
2
Received nack credit for flit 159362
Requeued flit 159362
Received nack credit for flit 176781
Requeued flit 176781
6
Received nack credit for flit 98852
Requeued flit 98852
5
1
5
Received nack credit for flit 123846
Requeued flit 123846
Received nack credit for flit 130778
Requeued flit 130778
Received nack credit for flit 167590
Requeued flit 167590
4
6
Received nack credit for flit 152543
Requeued flit 152543
Received nack credit for flit 154327
Requeued flit 154327
4
Received nack credit for flit 95378
Requeued flit 95378
1
Received nack credit for flit 181539
Requeued flit 181539
1
Received nack credit for flit 167260
Requeued flit 167260
4
2
3
Received nack credit for flit 144566
Requeued flit 144566
Received nack credit for flit 103392
Requeued flit 103392
Received nack credit for flit 114816
Requeued flit 114816
5
Received nack credit for flit 78656
Requeued flit 78656
1
6
1
8
Received nack credit for flit 134134
Requeued flit 134134
Received nack credit for flit 164422
Requeued flit 164422
Received nack credit for flit 160873
Requeued flit 160873
Received nack credit for flit 72114
Requeued flit 72114
1
1
3
3
Received nack credit for flit 108191
Requeued flit 108191
6
Received nack credit for flit 131977
Requeued flit 131977
1
Received nack credit for flit 159364
Requeued flit 159364
4
Received nack credit for flit 167957
Requeued flit 167957
3
Received nack credit for flit 158694
Requeued flit 158694
Received nack credit for flit 161426
Requeued flit 161426
Received nack credit for flit 143613
Requeued flit 143613
4
Received nack credit for flit 116763
Requeued flit 116763
2
Received nack credit for flit 128563
Requeued flit 128563
4
5
3
3
Received nack credit for flit 160808
Requeued flit 160808
Received nack credit for flit 160824
Requeued flit 160824
Received nack credit for flit 160994
Requeued flit 160994
Received nack credit for flit 160345
Requeued flit 160345
1
1
5
Received nack credit for flit 164012
Requeued flit 164012
Received nack credit for flit 172982
Requeued flit 172982
Received nack credit for flit 143541
Requeued flit 143541
3
Received nack credit for flit 185026
Requeued flit 185026
1
Received nack credit for flit 184693
Requeued flit 184693
3
2
3
Received nack credit for flit 185983
Requeued flit 185983
Received nack credit for flit 168040
Requeued flit 168040
Received nack credit for flit 129273
Requeued flit 129273
1
7
Received nack credit for flit 166292
Requeued flit 166292
Received nack credit for flit 84654
Requeued flit 84654
1
4
Received nack credit for flit 128625
Requeued flit 128625
Received nack credit for flit 84630
Requeued flit 84630
1
Received nack credit for flit 166679
Requeued flit 166679
5
Received nack credit for flit 119049
Requeued flit 119049
1
1
3
1
3
Received nack credit for flit 168118
Requeued flit 168118
Received nack credit for flit 175228
Requeued flit 175228
Received nack credit for flit 124827
Requeued flit 124827
Received nack credit for flit 184743
Requeued flit 184743
Received nack credit for flit 87961
Requeued flit 87961
3
Received nack credit for flit 163898
Requeued flit 163898
4
6
7
Received nack credit for flit 93389
Requeued flit 93389
1
Received nack credit for flit 159564
Requeued flit 159564
Received nack credit for flit 85778
Requeued flit 85778
2
Received nack credit for flit 134554
Requeued flit 134554
Received nack credit for flit 139734
Requeued flit 139734
2
5
6
1
Received nack credit for flit 114775
Requeued flit 114775
Received nack credit for flit 160438
Requeued flit 160438
3
Received nack credit for flit 171725
Requeued flit 171725
Received nack credit for flit 88160
Requeued flit 88160
3
Received nack credit for flit 116168
Requeued flit 116168
Received nack credit for flit 129273
Requeued flit 129273
5
1
1
Received nack credit for flit 121572
Requeued flit 121572
Received nack credit for flit 179314
Requeued flit 179314
Received nack credit for flit 167463
Requeued flit 167463
2
Received nack credit for flit 191909
Requeued flit 191909
1
Received nack credit for flit 181342
Requeued flit 181342
4
7
Received nack credit for flit 85172
Requeued flit 85172
1
Received nack credit for flit 140856
Requeued flit 140856
5
Received nack credit for flit 139836
Requeued flit 139836
Received nack credit for flit 192245
Requeued flit 192245
4
2
Received nack credit for flit 180377
Requeued flit 180377
Received nack credit for flit 114607
Requeued flit 114607
1
8
Received nack credit for flit 137949
Requeued flit 137949
2
Received nack credit for flit 149758
Requeued flit 149758
Received nack credit for flit 138603
Requeued flit 138603
4
1
Received nack credit for flit 183780
Requeued flit 183780
Received nack credit for flit 194279
Requeued flit 194279
5
3
Received nack credit for flit 152699
Requeued flit 152699
1
Received nack credit for flit 174266
Requeued flit 174266
Received nack credit for flit 183413
Requeued flit 183413
4
1
6
Received nack credit for flit 157068
Requeued flit 157068
Received nack credit for flit 194656
Requeued flit 194656
Received nack credit for flit 124975
Requeued flit 124975
4
Received nack credit for flit 141831
Requeued flit 141831
6
3
Received nack credit for flit 87928
Requeued flit 87928
Received nack credit for flit 96923
Requeued flit 96923
1
Received nack credit for flit 196970
Requeued flit 196970
1
2
Received nack credit for flit 177253
Requeued flit 177253
Received nack credit for flit 119914
Requeued flit 119914
1
Received nack credit for flit 180199
Requeued flit 180199
5
3
Received nack credit for flit 187139
Requeued flit 187139
Received nack credit for flit 196948
Requeued flit 196948
1
Received nack credit for flit 175762
Requeued flit 175762
6
3
Received nack credit for flit 173810
Requeued flit 173810
Received nack credit for flit 91642
Requeued flit 91642
3
8
Received nack credit for flit 174941
Requeued flit 174941
7
Received nack credit for flit 144186
Requeued flit 144186
1
Received nack credit for flit 171391
Requeued flit 171391
1
Received nack credit for flit 171518
Requeued flit 171518
1
1
1
Received nack credit for flit 183769
Requeued flit 183769
Received nack credit for flit 181989
Requeued flit 181989
Received nack credit for flit 200895
Requeued flit 200895
1
Received nack credit for flit 171635
Requeued flit 171635
Received nack credit for flit 176514
Requeued flit 176514
1
8
Received nack credit for flit 170095
Requeued flit 170095
Received nack credit for flit 89359
Requeued flit 89359
7
Received nack credit for flit 178965
Requeued flit 178965
1
1
2
Received nack credit for flit 180162
Requeued flit 180162
6
Received nack credit for flit 141084
Requeued flit 141084
Received nack credit for flit 185035
Requeued flit 185035
Received nack credit for flit 169789
Requeued flit 169789
1
Received nack credit for flit 175027
Requeued flit 175027
3
1
Received nack credit for flit 192036
Requeued flit 192036
2
Received nack credit for flit 172546
Requeued flit 172546
4
1
Received nack credit for flit 120041
Requeued flit 120041
Received nack credit for flit 183065
Requeued flit 183065
Received nack credit for flit 181134
Requeued flit 181134
4
2
Received nack credit for flit 90838
Requeued flit 90838
Received nack credit for flit 147456
Requeued flit 147456
9
7
Received nack credit for flit 176039
Requeued flit 176039
Received nack credit for flit 93937
Requeued flit 93937
4
4
1
Received nack credit for flit 118748
Requeued flit 118748
3
Received nack credit for flit 176154
Requeued flit 176154
Received nack credit for flit 202100
Requeued flit 202100
Received nack credit for flit 200670
Requeued flit 200670
4
3
Received nack credit for flit 183004
Requeued flit 183004
Received nack credit for flit 182579
Requeued flit 182579
2
3
Received nack credit for flit 203314
Requeued flit 203314
1
Received nack credit for flit 141706
Requeued flit 141706
2
Received nack credit for flit 186449
Requeued flit 186449
5
6
Received nack credit for flit 202344
Requeued flit 202344
Received nack credit for flit 105610
Requeued flit 105610
Received nack credit for flit 92377
Requeued flit 92377
1
1
Received nack credit for flit 188405
Requeued flit 188405
Received nack credit for flit 204337
Requeued flit 204337
4
2
Received nack credit for flit 93439
Requeued flit 93439
Received nack credit for flit 188584
Requeued flit 188584
2
1
Received nack credit for flit 126056
Requeued flit 126056
Received nack credit for flit 197714
Requeued flit 197714
7
Received nack credit for flit 135024
Requeued flit 135024
1
Received nack credit for flit 176218
Requeued flit 176218
7
1
5
1
Received nack credit for flit 207072
Requeued flit 207072
3
Received nack credit for flit 139003
Requeued flit 139003
Received nack credit for flit 173565
Requeued flit 173565
Received nack credit for flit 205225
Requeued flit 205225
Received nack credit for flit 138111
Requeued flit 138111
2
2
1
Received nack credit for flit 190244
Requeued flit 190244
Received nack credit for flit 199196
Requeued flit 199196
6
Received nack credit for flit 183043
Requeued flit 183043
4
Received nack credit for flit 101356
Requeued flit 101356
Received nack credit for flit 207434
Requeued flit 207434
9
2
7
Received nack credit for flit 94956
Requeued flit 94956
Received nack credit for flit 207934
Requeued flit 207934
5
Received nack credit for flit 113487
Requeued flit 113487
1
Received nack credit for flit 176344
Requeued flit 176344
Received nack credit for flit 200589
Requeued flit 200589
2
Received nack credit for flit 207532
Requeued flit 207532
6
5
Received nack credit for flit 190661
Requeued flit 190661
2
Received nack credit for flit 140844
Requeued flit 140844
2
Received nack credit for flit 188567
Requeued flit 188567
Received nack credit for flit 172477
Requeued flit 172477
6
2
2
Received nack credit for flit 95359
Requeued flit 95359
Received nack credit for flit 155310
Requeued flit 155310
Received nack credit for flit 156830
Requeued flit 156830
1
5
2
Received nack credit for flit 191962
Requeued flit 191962
2
7
1
3
Received nack credit for flit 93465
Requeued flit 93465
Received nack credit for flit 195352
Requeued flit 195352
Received nack credit for flit 193516
Requeued flit 193516
Received nack credit for flit 150748
Requeued flit 150748
Received nack credit for flit 154721
Requeued flit 154721
1
1
3
8
Received nack credit for flit 208793
Requeued flit 208793
Received nack credit for flit 190693
Requeued flit 190693
Received nack credit for flit 192796
Requeued flit 192796
Received nack credit for flit 126032
Requeued flit 126032
1
4
Received nack credit for flit 191542
Requeued flit 191542
3
6
Received nack credit for flit 198492
Requeued flit 198492
Received nack credit for flit 194041
Requeued flit 194041
Received nack credit for flit 210399
Requeued flit 210399
1
Received nack credit for flit 204216
Requeued flit 204216
4
Received nack credit for flit 194344
Requeued flit 194344
7
Received nack credit for flit 201528
Requeued flit 201528
1
10
3
Received nack credit for flit 80716
Requeued flit 80716
Received nack credit for flit 194627
Requeued flit 194627
4
Received nack credit for flit 150457
Requeued flit 150457
Received nack credit for flit 161337
Requeued flit 161337
3
Received nack credit for flit 104095
Requeued flit 104095
1
Received nack credit for flit 181611
Requeued flit 181611
1
Received nack credit for flit 173132
Requeued flit 173132
3
Received nack credit for flit 121648
Requeued flit 121648
1
Received nack credit for flit 156348
Requeued flit 156348
1
3
Received nack credit for flit 194616
Requeued flit 194616
Received nack credit for flit 128061
Requeued flit 128061
2
1
1
1
Received nack credit for flit 152453
Requeued flit 152453
Received nack credit for flit 180825
Requeued flit 180825
3
Received nack credit for flit 176927
Requeued flit 176927
Received nack credit for flit 193114
Requeued flit 193114
5
Received nack credit for flit 197879
Requeued flit 197879
Received nack credit for flit 197660
Requeued flit 197660
2
8
Received nack credit for flit 178888
Requeued flit 178888
Received nack credit for flit 99039
Requeued flit 99039
5
9
8
1
Received nack credit for flit 114092
Requeued flit 114092
Received nack credit for flit 147711
Requeued flit 147711
Received nack credit for flit 183020
Requeued flit 183020
Received nack credit for flit 137856
Requeued flit 137856
8
Received nack credit for flit 95870
Requeued flit 95870
1
Received nack credit for flit 216153
Requeued flit 216153
2
Received nack credit for flit 223298
Requeued flit 223298
2
4
3
Received nack credit for flit 218584
Requeued flit 218584
1
Received nack credit for flit 155380
Requeued flit 155380
Received nack credit for flit 154220
Requeued flit 154220
9
Received nack credit for flit 178258
Requeued flit 178258
1
1
Received nack credit for flit 128914
Requeued flit 128914
Received nack credit for flit 215823
Requeued flit 215823
1
Received nack credit for flit 183973
Requeued flit 183973
1
Received nack credit for flit 211176
Requeued flit 211176
Received nack credit for flit 211172
Requeued flit 211172
1
4
Received nack credit for flit 200165
Requeued flit 200165
1
Received nack credit for flit 128533
Requeued flit 128533
1
1
Received nack credit for flit 212108
Requeued flit 212108
1
Received nack credit for flit 218444
Requeued flit 218444
Received nack credit for flit 201557
Requeued flit 201557
9
Received nack credit for flit 218519
Requeued flit 218519
1
4
2
Received nack credit for flit 140582
Requeued flit 140582
1
Received nack credit for flit 198692
Requeued flit 198692
Received nack credit for flit 106736
Requeued flit 106736
4
Received nack credit for flit 204669
Requeued flit 204669
Received nack credit for flit 218838
Requeued flit 218838
5
1
1
Received nack credit for flit 155470
Requeued flit 155470
4
Received nack credit for flit 201479
Requeued flit 201479
Received nack credit for flit 197917
Requeued flit 197917
Received nack credit for flit 203014
Requeued flit 203014
1
9
2
Received nack credit for flit 155192
Requeued flit 155192
Received nack credit for flit 97337
Requeued flit 97337
Received nack credit for flit 177318
Requeued flit 177318
Received nack credit for flit 203091
Requeued flit 203091
6
Received nack credit for flit 187279
Requeued flit 187279
5
2
Received nack credit for flit 152562
Requeued flit 152562
Received nack credit for flit 220781
Requeued flit 220781
10
1
Received nack credit for flit 220396
Requeued flit 220396
1
Received nack credit for flit 95723
Requeued flit 95723
Received nack credit for flit 200650
Requeued flit 200650
1
1
Received nack credit for flit 184782
Requeued flit 184782
Received nack credit for flit 184452
Requeued flit 184452
3
5
Received nack credit for flit 209781
Requeued flit 209781
Received nack credit for flit 204776
Requeued flit 204776
2
3
Received nack credit for flit 220975
Requeued flit 220975
1
Received nack credit for flit 106838
Requeued flit 106838
3
Received nack credit for flit 204468
Requeued flit 204468
Received nack credit for flit 195869
Requeued flit 195869
7
2
9
Received nack credit for flit 137451
Requeued flit 137451
Received nack credit for flit 205791
Requeued flit 205791
Received nack credit for flit 102311
Requeued flit 102311
1
2
7
2
2
Received nack credit for flit 201515
Requeued flit 201515
Received nack credit for flit 217138
Requeued flit 217138
Received nack credit for flit 105638
Requeued flit 105638
Received nack credit for flit 231788
Requeued flit 231788
Received nack credit for flit 154965
Requeued flit 154965
2
5
1
2
2
Received nack credit for flit 145180
Requeued flit 145180
Received nack credit for flit 203736
Requeued flit 203736
Received nack credit for flit 171349
Requeued flit 171349
Received nack credit for flit 185425
Requeued flit 185425
Received nack credit for flit 205024
Requeued flit 205024
1
5
3
3
Received nack credit for flit 223947
Requeued flit 223947
Received nack credit for flit 101543
Requeued flit 101543
7
3
Received nack credit for flit 209912
Requeued flit 209912
Received nack credit for flit 205183
Requeued flit 205183
Received nack credit for flit 175049
Requeued flit 175049
Received nack credit for flit 207521
Requeued flit 207521
2
5
Received nack credit for flit 218898
Requeued flit 218898
3
Received nack credit for flit 122169
Requeued flit 122169
5
Received nack credit for flit 173164
Requeued flit 173164
Received nack credit for flit 112360
Requeued flit 112360
4
8
Received nack credit for flit 173164
Requeued flit 173164
1
Received nack credit for flit 160967
Requeued flit 160967
1
Received nack credit for flit 186130
Requeued flit 186130
5
Received nack credit for flit 186646
Requeued flit 186646
Received nack credit for flit 107670
Requeued flit 107670
1
Received nack credit for flit 220604
Requeued flit 220604
3
1
Received nack credit for flit 134874
Requeued flit 134874
5
Received nack credit for flit 226498
Requeued flit 226498
Received nack credit for flit 115695
Requeued flit 115695
4
1
Received nack credit for flit 221456
Requeued flit 221456
Received nack credit for flit 207875
Requeued flit 207875
4
Received nack credit for flit 113367
Requeued flit 113367
6
9
Received nack credit for flit 126622
Requeued flit 126622
Received nack credit for flit 107665
Requeued flit 107665
2
Received nack credit for flit 227404
Requeued flit 227404
1
1
Received nack credit for flit 212463
Requeued flit 212463
Received nack credit for flit 210468
Requeued flit 210468
2
1
2
Received nack credit for flit 212275
Requeued flit 212275
Received nack credit for flit 210362
Requeued flit 210362
3
Received nack credit for flit 138316
Requeued flit 138316
Received nack credit for flit 223734
Requeued flit 223734
2
1
Received nack credit for flit 157385
Requeued flit 157385
2
Received nack credit for flit 207271
Requeued flit 207271
1
Received nack credit for flit 210228
Requeued flit 210228
Received nack credit for flit 188415
Requeued flit 188415
1
1
Received nack credit for flit 208381
Requeued flit 208381
Received nack credit for flit 228907
Requeued flit 228907
3
Received nack credit for flit 164278
Requeued flit 164278
1
3
Received nack credit for flit 229402
Requeued flit 229402
Received nack credit for flit 125374
Requeued flit 125374
1
Received nack credit for flit 224729
Requeued flit 224729
9
1
Received nack credit for flit 194074
Requeued flit 194074
Received nack credit for flit 189482
Requeued flit 189482
4
4
Received nack credit for flit 213975
Requeued flit 213975
6
Received nack credit for flit 177748
Requeued flit 177748
Received nack credit for flit 157150
Requeued flit 157150
1
6
4
1
1
Received nack credit for flit 116888
Requeued flit 116888
Received nack credit for flit 214286
Requeued flit 214286
Received nack credit for flit 212983
Requeued flit 212983
Received nack credit for flit 186188
Requeued flit 186188
Received nack credit for flit 213000
Requeued flit 213000
1
Received nack credit for flit 213032
Requeued flit 213032
2
1
Received nack credit for flit 187422
Requeued flit 187422
Received nack credit for flit 243120
Requeued flit 243120
3
4
Received nack credit for flit 168099
Requeued flit 168099
2
Received nack credit for flit 109702
Requeued flit 109702
Received nack credit for flit 217214
Requeued flit 217214
2
Received nack credit for flit 215703
Requeued flit 215703
3
Received nack credit for flit 137816
Requeued flit 137816
7
Received nack credit for flit 213139
Requeued flit 213139
3
7
1
4
Received nack credit for flit 162714
Requeued flit 162714
2
Received nack credit for flit 216934
Requeued flit 216934
Received nack credit for flit 235535
Requeued flit 235535
Received nack credit for flit 233484
Requeued flit 233484
6
Received nack credit for flit 217436
Requeued flit 217436
12
2
Received nack credit for flit 114028
Requeued flit 114028
Received nack credit for flit 99853
Requeued flit 99853
Received nack credit for flit 137419
Requeued flit 137419
4
9
Received nack credit for flit 218228
Requeued flit 218228
Received nack credit for flit 207956
Requeued flit 207956
3
5
Received nack credit for flit 219201
Requeued flit 219201
3
Received nack credit for flit 168515
Requeued flit 168515
Received nack credit for flit 234848
Requeued flit 234848
7
1
4
1
Received nack credit for flit 107125
Requeued flit 107125
Received nack credit for flit 233704
Requeued flit 233704
1
6
Received nack credit for flit 107630
Requeued flit 107630
2
Received nack credit for flit 220440
Requeued flit 220440
Received nack credit for flit 171924
Requeued flit 171924
Received nack credit for flit 190817
Requeued flit 190817
Received nack credit for flit 231127
Requeued flit 231127
1
1
1
1
5
Received nack credit for flit 231335
Requeued flit 231335
Received nack credit for flit 231164
Requeued flit 231164
Received nack credit for flit 231353
Requeued flit 231353
3
Received nack credit for flit 220109
Requeued flit 220109
Received nack credit for flit 111105
Requeued flit 111105
1
Received nack credit for flit 219278
Requeued flit 219278
Received nack credit for flit 231502
Requeued flit 231502
3
Received nack credit for flit 123627
Requeued flit 123627
1
Received nack credit for flit 232353
Requeued flit 232353
8
2
1
6
Received nack credit for flit 106939
Requeued flit 106939
Received nack credit for flit 232610
Requeued flit 232610
Received nack credit for flit 157913
Requeued flit 157913
Received nack credit for flit 227774
Requeued flit 227774
4
1
Received nack credit for flit 226317
Requeued flit 226317
4
2
Received nack credit for flit 188307
Requeued flit 188307
4
Received nack credit for flit 237412
Requeued flit 237412
Received nack credit for flit 210286
Requeued flit 210286
Received nack credit for flit 172555
Requeued flit 172555
1
3
Received nack credit for flit 238418
Requeued flit 238418
Received nack credit for flit 206713
Requeued flit 206713
1
3
Received nack credit for flit 220511
Requeued flit 220511
Received nack credit for flit 158007
Requeued flit 158007
1
6
Received nack credit for flit 241121
Requeued flit 241121
2
Received nack credit for flit 222051
Requeued flit 222051
Received nack credit for flit 221306
Requeued flit 221306
1
5
1
Received nack credit for flit 221589
Requeued flit 221589
1
3
Received nack credit for flit 215013
Requeued flit 215013
Received nack credit for flit 198901
Requeued flit 198901
Received nack credit for flit 200555
Requeued flit 200555
Received nack credit for flit 173878
Requeued flit 173878
5
Received nack credit for flit 230965
Requeued flit 230965
4
1
Received nack credit for flit 124122
Requeued flit 124122
3
Received nack credit for flit 236449
Requeued flit 236449
4
3
Received nack credit for flit 224806
Requeued flit 224806
Received nack credit for flit 115368
Requeued flit 115368
1
Received nack credit for flit 199411
Requeued flit 199411
4
Received nack credit for flit 221951
Requeued flit 221951
Received nack credit for flit 238634
Requeued flit 238634
1
4
Received nack credit for flit 226467
Requeued flit 226467
Received nack credit for flit 225032
Requeued flit 225032
3
Received nack credit for flit 178371
Requeued flit 178371
4
1
Received nack credit for flit 202055
Requeued flit 202055
Received nack credit for flit 237647
Requeued flit 237647
3
1
1
3
Received nack credit for flit 131730
Requeued flit 131730
Received nack credit for flit 203781
Requeued flit 203781
4
Received nack credit for flit 226131
Requeued flit 226131
Received nack credit for flit 193805
Requeued flit 193805
3
5
7
Received nack credit for flit 124278
Requeued flit 124278
Received nack credit for flit 156882
Requeued flit 156882
Received nack credit for flit 241542
Requeued flit 241542
Received nack credit for flit 239981
Requeued flit 239981
1
1
7
2
Received nack credit for flit 225510
Requeued flit 225510
Received nack credit for flit 226717
Requeued flit 226717
Received nack credit for flit 175482
Requeued flit 175482
Received nack credit for flit 202770
Requeued flit 202770
3
1
1
Received nack credit for flit 234939
Requeued flit 234939
Received nack credit for flit 238880
Requeued flit 238880
Received nack credit for flit 224504
Requeued flit 224504
1
2
7
Received nack credit for flit 238945
Requeued flit 238945
Received nack credit for flit 228509
Requeued flit 228509
1
2
Received nack credit for flit 210763
Requeued flit 210763
Received nack credit for flit 197653
Requeued flit 197653
1
Received nack credit for flit 228564
Requeued flit 228564
1
Received nack credit for flit 239499
Requeued flit 239499
3
Received nack credit for flit 228444
Requeued flit 228444
Received nack credit for flit 179874
Requeued flit 179874
6
Received nack credit for flit 228378
Requeued flit 228378
2
Received nack credit for flit 192054
Requeued flit 192054
6
1
1
Received nack credit for flit 228635
Requeued flit 228635
1
Received nack credit for flit 233561
Requeued flit 233561
Received nack credit for flit 228570
Requeued flit 228570
Received nack credit for flit 244292
Requeued flit 244292
1
Received nack credit for flit 230052
Requeued flit 230052
1
1
Received nack credit for flit 227143
Requeued flit 227143
Received nack credit for flit 229337
Requeued flit 229337
1
Received nack credit for flit 230975
Requeued flit 230975
2
3
Received nack credit for flit 245658
Requeued flit 245658
7
Received nack credit for flit 127755
Requeued flit 127755
4
Received nack credit for flit 166328
Requeued flit 166328
1
Received nack credit for flit 199302
Requeued flit 199302
1
Received nack credit for flit 200092
Requeued flit 200092
Received nack credit for flit 227405
Requeued flit 227405
4
Received nack credit for flit 231011
Requeued flit 231011
2
1
1
Received nack credit for flit 191762
Requeued flit 191762
Received nack credit for flit 202146
Requeued flit 202146
Received nack credit for flit 229397
Requeued flit 229397
8
Received nack credit for flit 114874
Requeued flit 114874
2
4
6
4
6
4
Received nack credit for flit 130828
Requeued flit 130828
Received nack credit for flit 166807
Requeued flit 166807
Received nack credit for flit 119515
Requeued flit 119515
Received nack credit for flit 231977
Requeued flit 231977
Received nack credit for flit 122236
Requeued flit 122236
Received nack credit for flit 247988
Requeued flit 247988
2
1
1
Received nack credit for flit 167322
Requeued flit 167322
Received nack credit for flit 230223
Requeued flit 230223
Received nack credit for flit 230478
Requeued flit 230478
2
5
2
1
7
Received nack credit for flit 231288
Requeued flit 231288
1
1
Received nack credit for flit 249926
Requeued flit 249926
Received nack credit for flit 205705
Requeued flit 205705
Received nack credit for flit 178436
Requeued flit 178436
Received nack credit for flit 250992
Requeued flit 250992
1
Received nack credit for flit 230911
Requeued flit 230911
Received nack credit for flit 209866
Requeued flit 209866
Received nack credit for flit 201733
Requeued flit 201733
1
Received nack credit for flit 231584
Requeued flit 231584
3
4
Received nack credit for flit 183734
Requeued flit 183734
Received nack credit for flit 129248
Requeued flit 129248
3
Received nack credit for flit 210719
Requeued flit 210719
1
Received nack credit for flit 234270
Requeued flit 234270
5
Received nack credit for flit 234911
Requeued flit 234911
4
2
Received nack credit for flit 144115
Requeued flit 144115
3
Received nack credit for flit 197498
Requeued flit 197498
3
Received nack credit for flit 149233
Requeued flit 149233
Received nack credit for flit 236576
Requeued flit 236576
5
3
Received nack credit for flit 185823
Requeued flit 185823
Received nack credit for flit 252545
Requeued flit 252545
1
1
1
Received nack credit for flit 237161
Requeued flit 237161
Received nack credit for flit 248458
Requeued flit 248458
Received nack credit for flit 236888
Requeued flit 236888
1
1
1
Received nack credit for flit 252961
Requeued flit 252961
2
1
Received nack credit for flit 236172
Requeued flit 236172
Received nack credit for flit 236363
Requeued flit 236363
Received nack credit for flit 248630
Requeued flit 248630
Received nack credit for flit 209928
Requeued flit 209928
1
Received nack credit for flit 254041
Requeued flit 254041
1
Received nack credit for flit 209034
Requeued flit 209034
1
5
5
5
Received nack credit for flit 250036
Requeued flit 250036
3
1
Received nack credit for flit 223003
Requeued flit 223003
Received nack credit for flit 182858
Requeued flit 182858
Received nack credit for flit 195660
Requeued flit 195660
Received nack credit for flit 151359
Requeued flit 151359
Received nack credit for flit 239538
Requeued flit 239538
2
1
Received nack credit for flit 199380
Requeued flit 199380
Received nack credit for flit 236798
Requeued flit 236798
4
5
Received nack credit for flit 253419
Requeued flit 253419
Received nack credit for flit 126908
Requeued flit 126908
1
Received nack credit for flit 254045
Requeued flit 254045
5
Received nack credit for flit 234394
Requeued flit 234394
4
4
1
Received nack credit for flit 124098
Requeued flit 124098
Received nack credit for flit 195200
Requeued flit 195200
4
Received nack credit for flit 215805
Requeued flit 215805
Received nack credit for flit 187245
Requeued flit 187245
9
5
Received nack credit for flit 156882
Requeued flit 156882
Received nack credit for flit 127210
Requeued flit 127210
2
6
Received nack credit for flit 252001
Requeued flit 252001
Received nack credit for flit 125845
Requeued flit 125845
1
Received nack credit for flit 214818
[...]
3
3
3
Received nack credit for flit 276893
Requeued flit 276893
Received nack credit for flit 205634
Requeued flit 205634
Received nack credit for flit 189276
Requeued flit 189276
1
Received nack credit for flit 321484
Requeued flit 321484
5
4
Received nack credit for flit 159534
Requeued flit 159534
Received nack credit for flit 177779
Requeued flit 177779
1
1
Received nack credit for flit 310458
Requeued flit 310458
Received nack credit for flit 312939
Requeued flit 312939
1
5
Received nack credit for flit 324420
Requeued flit 324420
1
1
9
Received nack credit for flit 160992
Requeued flit 160992
Received nack credit for flit 324517
Requeued flit 324517
Received nack credit for flit 250007
Requeued flit 250007
Received nack credit for flit 283102
Requeued flit 283102
2
5
Received nack credit for flit 306734
Requeued flit 306734
Received nack credit for flit 297352
Requeued flit 297352
5
1
4
Received nack credit for flit 309304
Requeued flit 309304
7
11
Received nack credit for flit 308765
Requeued flit 308765
6
Received nack credit for flit 306324
Requeued flit 306324
Received nack credit for flit 307255
Requeued flit 307255
Received nack credit for flit 295027
Requeued flit 295027
2
Received nack credit for flit 286386
Requeued flit 286386
4
Received nack credit for flit 308578
Requeued flit 308578
Received nack credit for flit 324269
Requeued flit 324269
3
1
Received nack credit for flit 314890
Requeued flit 314890
Received nack credit for flit 321128
Requeued flit 321128
1
1
3
Received nack credit for flit 325627
Requeued flit 325627
9
Received nack credit for flit 314176
Requeued flit 314176
Received nack credit for flit 312428
Requeued flit 312428
Received nack credit for flit 161603
Requeued flit 161603
4
3
1
2
Received nack credit for flit 327932
Requeued flit 327932
Received nack credit for flit 325884
Requeued flit 325884
Received nack credit for flit 278823
Requeued flit 278823
Received nack credit for flit 277612
Requeued flit 277612
3
Received nack credit for flit 309146
Requeued flit 309146
4
Received nack credit for flit 260992
Requeued flit 260992
3
1
5
10
1
Received nack credit for flit 282701
Requeued flit 282701
Received nack credit for flit 322529
Requeued flit 322529
Received nack credit for flit 249379
Requeued flit 249379
Received nack credit for flit 293822
Requeued flit 293822
Received nack credit for flit 316815
Requeued flit 316815
4
5
1
Received nack credit for flit 317043
Requeued flit 317043
Received nack credit for flit 175568
Requeued flit 175568
Received nack credit for flit 327864
Requeued flit 327864
6
Received nack credit for flit 311202
Requeued flit 311202
6
Received nack credit for flit 261486
Requeued flit 261486
4
6
1
3
3
Received nack credit for flit 317207
Requeued flit 317207
3
Received nack credit for flit 295734
Requeued flit 295734
Received nack credit for flit 189585
Requeued flit 189585
Received nack credit for flit 325122
Requeued flit 325122
5
Received nack credit for flit 313482
Requeued flit 313482
Received nack credit for flit 234640
Requeued flit 234640
Received nack credit for flit 312750
Requeued flit 312750
1
Received nack credit for flit 328581
Requeued flit 328581
3
1
Received nack credit for flit 265607
Requeued flit 265607
4
Received nack credit for flit 319598
Requeued flit 319598
9
1
Received nack credit for flit 175116
Requeued flit 175116
2
8
Received nack credit for flit 311308
Requeued flit 311308
Received nack credit for flit 314461
Requeued flit 314461
Received nack credit for flit 299214
Requeued flit 299214
Received nack credit for flit 290993
Requeued flit 290993
6
1
Received nack credit for flit 258623
Requeued flit 258623
Received nack credit for flit 332308
Requeued flit 332308
1
Received nack credit for flit 320144
Requeued flit 320144
3
Received nack credit for flit 333126
Requeued flit 333126
1
Received nack credit for flit 295140
Requeued flit 295140
5
5
1
Received nack credit for flit 332537
Requeued flit 332537
1
Received nack credit for flit 265507
Requeued flit 265507
Received nack credit for flit 316082
Requeued flit 316082
Received nack credit for flit 327712
Requeued flit 327712
1
Received nack credit for flit 291723
Requeued flit 291723
2
10
1
Received nack credit for flit 239503
Requeued flit 239503
Received nack credit for flit 187992
Requeued flit 187992
Received nack credit for flit 323013
Requeued flit 323013
7
Received nack credit for flit 203454
Requeued flit 203454
1
3
1
Received nack credit for flit 334868
Requeued flit 334868
2
Received nack credit for flit 329532
Requeued flit 329532
1
1
Received nack credit for flit 335142
Requeued flit 335142
1
1
Received nack credit for flit 236235
Requeued flit 236235
Received nack credit for flit 303920
Requeued flit 303920
Received nack credit for flit 329273
Requeued flit 329273
Received nack credit for flit 334587
Requeued flit 334587
Received nack credit for flit 333258
Requeued flit 333258
1
5
Received nack credit for flit 345498
Requeued flit 345498
3
3
Received nack credit for flit 183307
Requeued flit 183307
Received nack credit for flit 321554
Requeued flit 321554
1
Received nack credit for flit 317524
Requeued flit 317524
Received nack credit for flit 323286
Requeued flit 323286
1
4
Received nack credit for flit 300235
Requeued flit 300235
1
Received nack credit for flit 264062
Requeued flit 264062
1
1
2
Received nack credit for flit 324279
Requeued flit 324279
Received nack credit for flit 296176
Requeued flit 296176
Received nack credit for flit 296121
Requeued flit 296121
Received nack credit for flit 298741
Requeued flit 298741
2
1
5
Received nack credit for flit 261471
Requeued flit 261471
2
Received nack credit for flit 298950
Requeued flit 298950
Received nack credit for flit 289651
Requeued flit 289651
Received nack credit for flit 292385
Requeued flit 292385
1
1
Received nack credit for flit 299569
Requeued flit 299569
Received nack credit for flit 337847
Requeued flit 337847
8
1
3
Received nack credit for flit 318832
Requeued flit 318832
Received nack credit for flit 268627
Requeued flit 268627
Received nack credit for flit 326289
Requeued flit 326289
3
Received nack credit for flit 336713
Requeued flit 336713
1
1
Received nack credit for flit 324116
Requeued flit 324116
Received nack credit for flit 326456
Requeued flit 326456
1
1
6
Received nack credit for flit 338963
Requeued flit 338963
5
Received nack credit for flit 329816
Requeued flit 329816
Received nack credit for flit 208422
Requeued flit 208422
1
Received nack credit for flit 271992
Requeued flit 271992
5
Received nack credit for flit 298333
Requeued flit 298333
Received nack credit for flit 322296
Requeued flit 322296
3
2
Received nack credit for flit 318111
Requeued flit 318111
1
Received nack credit for flit 288823
Requeued flit 288823
1
Received nack credit for flit 329874
Requeued flit 329874
1
1
Received nack credit for flit 337931
Requeued flit 337931
Received nack credit for flit 340207
Requeued flit 340207
Received nack credit for flit 330619
Requeued flit 330619
1
Received nack credit for flit 326043
Requeued flit 326043
5
1
1
Received nack credit for flit 333986
Requeued flit 333986
Received nack credit for flit 337395
Requeued flit 337395
Received nack credit for flit 331233
Requeued flit 331233
1
3
3
Received nack credit for flit 340523
Requeued flit 340523
Received nack credit for flit 322019
Requeued flit 322019
3
1
Received nack credit for flit 335027
Requeued flit 335027
Received nack credit for flit 209105
Requeued flit 209105
Received nack credit for flit 326998
Requeued flit 326998
3
1
Received nack credit for flit 190925
Requeued flit 190925
1
Received nack credit for flit 333192
Requeued flit 333192
1
Received nack credit for flit 333223
Requeued flit 333223
4
Received nack credit for flit 357050
Requeued flit 357050
Received nack credit for flit 292099
Requeued flit 292099
1
1
Received nack credit for flit 306680
Requeued flit 306680
3
Received nack credit for flit 299763
Requeued flit 299763
1
5
Received nack credit for flit 327527
Requeued flit 327527
1
1
Received nack credit for flit 329708
Requeued flit 329708
Received nack credit for flit 326253
Requeued flit 326253
6
Received nack credit for flit 330983
Requeued flit 330983
1
Received nack credit for flit 308621
Requeued flit 308621
Received nack credit for flit 210792
Requeued flit 210792
2
Received nack credit for flit 338558
Requeued flit 338558
Received nack credit for flit 242108
Requeued flit 242108
3
3
5
Received nack credit for flit 326119
Requeued flit 326119
Received nack credit for flit 195881
Requeued flit 195881
Received nack credit for flit 324758
Requeued flit 324758
2
4
Received nack credit for flit 329662
Requeued flit 329662
Received nack credit for flit 242637
Requeued flit 242637
5
11
Received nack credit for flit 276483
Requeued flit 276483
3
Received nack credit for flit 170049
Requeued flit 170049
3
Received nack credit for flit 328923
Requeued flit 328923
1
7
5
Received nack credit for flit 274051
Requeued flit 274051
Received nack credit for flit 345430
Requeued flit 345430
Received nack credit for flit 325989
Requeued flit 325989
Received nack credit for flit 276861
Requeued flit 276861
10
Received nack credit for flit 206219
Requeued flit 206219
3
Received nack credit for flit 207571
Requeued flit 207571
3
Received nack credit for flit 346130
Requeued flit 346130
2
Received nack credit for flit 347095
Requeued flit 347095
1
Received nack credit for flit 334816
Requeued flit 334816
4
3
7
6
Received nack credit for flit 290512
Requeued flit 290512
Received nack credit for flit 332753
Requeued flit 332753
4
Received nack credit for flit 289884
Requeued flit 289884
Received nack credit for flit 208510
Requeued flit 208510
9
Received nack credit for flit 352138
Requeued flit 352138
1
1
Received nack credit for flit 326328
Requeued flit 326328
Received nack credit for flit 347693
Requeued flit 347693
Received nack credit for flit 349675
Requeued flit 349675
4
8
1
1
Received nack credit for flit 275609
Requeued flit 275609
Received nack credit for flit 298242
Requeued flit 298242
4
Received nack credit for flit 337558
Requeued flit 337558
Received nack credit for flit 335693
Requeued flit 335693
1
6
Received nack credit for flit 280592
Requeued flit 280592
Received nack credit for flit 314709
Requeued flit 314709
Received nack credit for flit 214626
Requeued flit 214626
1
1
Received nack credit for flit 345266
Requeued flit 345266
Received nack credit for flit 337119
Requeued flit 337119
4
7
Received nack credit for flit 329997
Requeued flit 329997
Received nack credit for flit 219444
Requeued flit 219444
1
1
5
Received nack credit for flit 313270
Requeued flit 313270
1
Received nack credit for flit 349658
Requeued flit 349658
1
Received nack credit for flit 329401
Requeued flit 329401
Received nack credit for flit 335393
Requeued flit 335393
Received nack credit for flit 364246
Requeued flit 364246
4
Received nack credit for flit 184593
Requeued flit 184593
6
Received nack credit for flit 312024
Requeued flit 312024
3
6
Received nack credit for flit 280020
Requeued flit 280020
Received nack credit for flit 171685
Requeued flit 171685
1
1
6
1
Received nack credit for flit 317188
Requeued flit 317188
8
Received nack credit for flit 336372
Requeued flit 336372
Received nack credit for flit 315645
Requeued flit 315645
6
Received nack credit for flit 320538
Requeued flit 320538
Received nack credit for flit 282940
Requeued flit 282940
Received nack credit for flit 289567
Requeued flit 289567
1
Received nack credit for flit 357743
Requeued flit 357743
5
Received nack credit for flit 172379
Requeued flit 172379
2
8
Received nack credit for flit 275922
Requeued flit 275922
Received nack credit for flit 333072
Requeued flit 333072
7
3
6
Received nack credit for flit 183589
Requeued flit 183589
1
Received nack credit for flit 340987
Requeued flit 340987
Received nack credit for flit 222072
Requeued flit 222072
6
Received nack credit for flit 318402
Requeued flit 318402
Received nack credit for flit 336138
Requeued flit 336138
4
4
1
Received nack credit for flit 227766
Requeued flit 227766
1
Received nack credit for flit 187067
Requeued flit 187067
Received nack credit for flit 353027
Requeued flit 353027
Received nack credit for flit 349905
Requeued flit 349905
3
Received nack credit for flit 340373
Requeued flit 340373
2
Received nack credit for flit 337916
Requeued flit 337916
2
1
6
Received nack credit for flit 251446
Requeued flit 251446
Received nack credit for flit 355056
Requeued flit 355056
Received nack credit for flit 216234
Requeued flit 216234
2
Received nack credit for flit 258687
Requeued flit 258687
5
1
4
Received nack credit for flit 189567
Requeued flit 189567
Received nack credit for flit 346759
Requeued flit 346759
Received nack credit for flit 344224
Requeued flit 344224
5
1
Received nack credit for flit 172919
Requeued flit 172919
Received nack credit for flit 318633
Requeued flit 318633
6
6
Received nack credit for flit 177013
Requeued flit 177013
1
Received nack credit for flit 348693
Requeued flit 348693
Received nack credit for flit 353490
Requeued flit 353490
2
1
Received nack credit for flit 343460
Requeued flit 343460
Received nack credit for flit 323381
Requeued flit 323381
1
3
Received nack credit for flit 353048
Requeued flit 353048
12
Received nack credit for flit 220924
Requeued flit 220924
1
10
Received nack credit for flit 167016
Requeued flit 167016
Received nack credit for flit 319172
Requeued flit 319172
Received nack credit for flit 173936
Requeued flit 173936
7
Received nack credit for flit 224442
Requeued flit 224442
2
1
Received nack credit for flit 307478
Requeued flit 307478
Received nack credit for flit 353809
Requeued flit 353809
2
2
Received nack credit for flit 308488
Requeued flit 308488
Received nack credit for flit 357473
Requeued flit 357473
1
Received nack credit for flit 348101
Requeued flit 348101
4
Received nack credit for flit 315532
Requeued flit 315532
4
6
Received nack credit for flit 358632
Requeued flit 358632
1
Received nack credit for flit 237024
Requeued flit 237024
Received nack credit for flit 354238
Requeued flit 354238
7
1
5
Received nack credit for flit 318141
Requeued flit 318141
4
Received nack credit for flit 228823
Requeued flit 228823
Received nack credit for flit 352575
Requeued flit 352575
Received nack credit for flit 348745
Requeued flit 348745
1
Received nack credit for flit 348185
Requeued flit 348185
1
Received nack credit for flit 354431
Requeued flit 354431
4
Received nack credit for flit 291109
Requeued flit 291109
8
3
7
2
Received nack credit for flit 178987
Requeued flit 178987
Received nack credit for flit 226142
Requeued flit 226142
Received nack credit for flit 339152
Requeued flit 339152
Received nack credit for flit 292379
Requeued flit 292379
1
Received nack credit for flit 359391
Requeued flit 359391
1
Received nack credit for flit 358037
Requeued flit 358037
3
Received nack credit for flit 340910
Requeued flit 340910
5
1
1
Received nack credit for flit 368611
Requeued flit 368611
1
1
Received nack credit for flit 362340
Requeued flit 362340
Received nack credit for flit 355331
Requeued flit 355331
Received nack credit for flit 358790
Requeued flit 358790
Received nack credit for flit 330302
Requeued flit 330302
4
3
Received nack credit for flit 236945
Requeued flit 236945
Received nack credit for flit 353403
Requeued flit 353403
4
3
8
Received nack credit for flit 349119
Requeued flit 349119
Received nack credit for flit 358553
Requeued flit 358553
1
6
Received nack credit for flit 289338
Requeued flit 289338
1
Received nack credit for flit 345244
Requeued flit 345244
4
Received nack credit for flit 326808
Requeued flit 326808
2
1
Received nack credit for flit 356272
Requeued flit 356272
8
Received nack credit for flit 297253
Requeued flit 297253
Received nack credit for flit 316437
Requeued flit 316437
Received nack credit for flit 331843
Requeued flit 331843
Received nack credit for flit 240209
Requeued flit 240209
3
2
2
3
Received nack credit for flit 228344
Requeued flit 228344
Received nack credit for flit 359414
Requeued flit 359414
Received nack credit for flit 318920
Requeued flit 318920
Received nack credit for flit 300368
Requeued flit 300368
2
1
Received nack credit for flit 340704
Requeued flit 340704
Received nack credit for flit 358622
Requeued flit 358622
2
Received nack credit for flit 348183
Requeued flit 348183
5
Received nack credit for flit 359627
Requeued flit 359627
1
1
Received nack credit for flit 363735
Requeued flit 363735
6
Received nack credit for flit 366234
Requeued flit 366234
Received nack credit for flit 180036
Requeued flit 180036
2
1
Received nack credit for flit 297584
Requeued flit 297584
3
Received nack credit for flit 356608
Requeued flit 356608
Received nack credit for flit 231210
Requeued flit 231210
3
1
Received nack credit for flit 350311
Requeued flit 350311
Received nack credit for flit 367203
Requeued flit 367203
2
1
1
Received nack credit for flit 290027
Requeued flit 290027
Received nack credit for flit 366157
Requeued flit 366157
Received nack credit for flit 327917
Requeued flit 327917
2
Received nack credit for flit 323974
Requeued flit 323974
5
Received nack credit for flit 356890
Requeued flit 356890
1
Received nack credit for flit 363796
Requeued flit 363796
3
8
Received nack credit for flit 380899
Requeued flit 380899
2
Received nack credit for flit 185997
Requeued flit 185997
Received nack credit for flit 357261
Requeued flit 357261
3
Received nack credit for flit 354669
Requeued flit 354669
2
Received nack credit for flit 348779
Requeued flit 348779
6
Received nack credit for flit 363366
Requeued flit 363366
4
3
Received nack credit for flit 238608
Requeued flit 238608
Received nack credit for flit 232242
Requeued flit 232242
1
Received nack credit for flit 370149
Requeued flit 370149
6
5
Received nack credit for flit 239081
Requeued flit 239081
Received nack credit for flit 350084
Requeued flit 350084
2
Received nack credit for flit 325160
Requeued flit 325160
4
Received nack credit for flit 245554
Requeued flit 245554
7
Received nack credit for flit 270220
Requeued flit 270220
7
6
Received nack credit for flit 183903
Requeued flit 183903
Received nack credit for flit 252073
Requeued flit 252073
2
Received nack credit for flit 327008
Requeued flit 327008
6
7
Received nack credit for flit 368533
Requeued flit 368533
Received nack credit for flit 357344
Requeued flit 357344
2
5
Received nack credit for flit 365604
Requeued flit 365604
Received nack credit for flit 184973
Requeued flit 184973
2
2
1
Received nack credit for flit 372132
Requeued flit 372132
Received nack credit for flit 374116
Requeued flit 374116
Received nack credit for flit 364097
Requeued flit 364097
3
Received nack credit for flit 263924
Requeued flit 263924
1
1
Received nack credit for flit 375979
Requeued flit 375979
Received nack credit for flit 365951
Requeued flit 365951
Class 0:
Packet latency average = 1561.27
	minimum = 5
	maximum = 6640
Network latency average = 1378.96
	minimum = 5
	maximum = 6630
Slowest packet = 176376
Flit latency average = 1378.96
	minimum = 5
	maximum = 6630
Slowest flit = 177055
Fragmentation average = 0
	minimum = 0
	maximum = 0
Injected packet rate average = 0.616686
	minimum = 0.4371 (at node 6)
	maximum = 0.8542 (at node 43)
Accepted packet rate average = 0.502609
	minimum = 0.4822 (at node 21)
	maximum = 0.5173 (at node 14)
Injected flit rate average = 0.616686
	minimum = 0.4371 (at node 6)
	maximum = 0.8542 (at node 43)
Accepted flit rate average= 0.502609
	minimum = 0.4822 (at node 21)
	maximum = 0.5173 (at node 14)
Injected packet length average = 1
Accepted packet length average = 1
Total in-flight flits = 73040 (0 measured)
latency change    = 1
throughput change = 1
Average latency for class 0 exceeded 500 cycles. Aborting simulation.
Too many sample periods needed to converge
Simulation unstable, ending ...
Total run time 52.5496
