BEGIN Configuration File: examples/ecc_mesh88_config_1_0.650_packet_3
// $Id$

// Copyright (c) 2007-2015, Trustees of The Leland Stanford Junior University
// All rights reserved.
//
// Redistribution and use in source and binary forms, with or without
// modification, are permitted provided that the following conditions are met:
//
// Redistributions of source code must retain the above copyright notice, this
// list of conditions and the following disclaimer.
// Redistributions in binary form must reproduce the above copyright notice,
// this list of conditions and the following disclaimer in the documentation
// and/or other materials provided with the distribution.
//
// THIS SOFTWARE IS PROVIDED BY THE COPYRIGHT HOLDERS AND CONTRIBUTORS "AS IS"
// AND ANY EXPRESS OR IMPLIED WARRANTIES, INCLUDING, BUT NOT LIMITED TO, THE
// IMPLIED WARRANTIES OF MERCHANTABILITY AND FITNESS FOR A PARTICULAR PURPOSE
// ARE DISCLAIMED. IN NO EVENT SHALL THE COPYRIGHT OWNER OR CONTRIBUTORS BE
// LIABLE FOR ANY DIRECT, INDIRECT, INCIDENTAL, SPECIAL, EXEMPLARY, OR
// CONSEQUENTIAL DAMAGES (INCLUDING, BUT NOT LIMITED TO, PROCUREMENT OF
// SUBSTITUTE GOODS OR SERVICES; LOSS OF USE, DATA, OR PROFITS; OR BUSINESS
// INTERRUPTION) HOWEVER CAUSED AND ON ANY THEORY OF LIABILITY, WHETHER IN
// CONTRACT, STRICT LIABILITY, OR TORT (INCLUDING NEGLIGENCE OR OTHERWISE)
// ARISING IN ANY WAY OUT OF THE USE OF THIS SOFTWARE, EVEN IF ADVISED OF THE
// POSSIBILITY OF SUCH DAMAGE.

// Dragonfly
//




vc_buf_size = 256;


wait_for_tail_credit = 0;

//
// Router architecture
//
vc_allocator = separable_input_first; 
sw_allocator = separable_input_first;
alloc_iters  = 1;

credit_delay   = 2;
routing_delay  = 0;
vc_alloc_delay = 1;
sw_alloc_delay = 1;
st_final_delay = 1;

input_speedup     = 1;
output_speedup    = 1;
internal_speedup  = 2.0;


warmup_periods = 3;
sim_count          = 1;

sample_period  = 10000;  


routing_function = dor;
num_vcs     = 2;

priority = none;
traffic       = uniform; 

injection_rate = 0.65;
packet_size = 1;
injection_rate_uses_flits = 1;

topology = mesh;

k  = 8;
n  = 2;

fer = 3;
ecc = link;

watch_out=-;
//watch_file = watch.txt;

ecc = packet;

stats_out = examples/ecc_mesh88_config_1_0.650_packet_3.m;

END Configuration File: examples/ecc_mesh88_config_1_0.650_packet_3
Additional hops: 5
Set signal latency stall time: 10
Additional hops: 8
Set signal latency stall time: 6
Reenqueueing errored packet 167 at time 32
Additional hops: 11
Set signal latency stall time: 6
Reenqueueing errored packet 747 at time 37
Additional hops: 21
Set signal latency stall time: 20
Reenqueueing errored packet 643 at time 39
Additional hops: 26
Set signal latency stall time: 10
Additional hops: 33
Set signal latency stall time: 14
Reenqueueing errored packet 972 at time 52
Additional hops: 41
Set signal latency stall time: 16
Reenqueueing errored packet 128 at time 58
Additional hops: 45
Set signal latency stall time: 8
Reenqueueing errored packet 816 at time 65
Reenqueueing errored packet 1823 at time 70
Reenqueueing errored packet 941 at time 71
Additional hops: 53
Set signal latency stall time: 16
Additional hops: 67
Set signal latency stall time: 28
Additional hops: 73
Set signal latency stall time: 12
Additional hops: 78
Set signal latency stall time: 10
Additional hops: 86
Set signal latency stall time: 16
Reenqueueing errored packet 1928 at time 94
Reenqueueing errored packet 2015 at time 95
Additional hops: 92
Set signal latency stall time: 12
Reenqueueing errored packet 2944 at time 101
Reenqueueing errored packet 310 at time 108
Reenqueueing errored packet 2600 at time 109
Reenqueueing errored packet 1320 at time 109
Additional hops: 98
Set signal latency stall time: 12
Additional hops: 102
Set signal latency stall time: 8
Reenqueueing errored packet 3393 at time 123
Additional hops: 109
Set signal latency stall time: 14
Additional hops: 112
Set signal latency stall time: 6
Reenqueueing errored packet 4204 at time 130
Additional hops: 114
Set signal latency stall time: 4
Reenqueueing errored packet 4449 at time 135
Reenqueueing errored packet 4943 at time 139
Additional hops: 123
Set signal latency stall time: 18
Additional hops: 129
Set signal latency stall time: 12
Additional hops: 133
Set signal latency stall time: 8
Reenqueueing errored packet 3957 at time 142
Additional hops: 141
Set signal latency stall time: 16
Additional hops: 151
Set signal latency stall time: 20
Reenqueueing errored packet 4642 at time 150
Additional hops: 156
Set signal latency stall time: 10
Reenqueueing errored packet 4397 at time 153
Additional hops: 163
Set signal latency stall time: 14
Reenqueueing errored packet 2939 at time 159
Reenqueueing errored packet 3904 at time 161
Reenqueueing errored packet 5549 at time 163
Reenqueueing errored packet 3613 at time 169
Reenqueueing errored packet 2527 at time 169
Additional hops: 164
Set signal latency stall time: 2
Additional hops: 168
Set signal latency stall time: 8
Reenqueueing errored packet 6893 at time 173
Additional hops: 178
Set signal latency stall time: 20
Reenqueueing errored packet 5914 at time 180
Additional hops: 187
Set signal latency stall time: 18
Additional hops: 194
Set signal latency stall time: 14
Reenqueueing errored packet 3666 at time 196
Reenqueueing errored packet 6062 at time 206
Additional hops: 199
Set signal latency stall time: 10
Reenqueueing errored packet 4612 at time 210
Additional hops: 208
Set signal latency stall time: 18
Additional hops: 215
Set signal latency stall time: 14
Reenqueueing errored packet 6343 at time 219
Reenqueueing errored packet 6804 at time 229
Reenqueueing errored packet 6131 at time 230
Additional hops: 219
Set signal latency stall time: 8
Additional hops: 232
Set signal latency stall time: 26
Additional hops: 239
Set signal latency stall time: 14
Additional hops: 250
Set signal latency stall time: 22
Reenqueueing errored packet 8761 at time 243
Additional hops: 260
Set signal latency stall time: 20
Reenqueueing errored packet 5518 at time 250
Additional hops: 265
Set signal latency stall time: 10
Additional hops: 269
Set signal latency stall time: 8
Additional hops: 277
Set signal latency stall time: 16
Additional hops: 282
Set signal latency stall time: 10
Reenqueueing errored packet 9689 at time 260
Reenqueueing errored packet 6912 at time 262
Reenqueueing errored packet 4201 at time 262
Additional hops: 289
Set signal latency stall time: 14
Additional hops: 296
Set signal latency stall time: 14
Reenqueueing errored packet 6700 at time 264
Reenqueueing errored packet 5235 at time 265
Reenqueueing errored packet 7799 at time 268
Additional hops: 302
Set signal latency stall time: 12
Reenqueueing errored packet 5955 at time 270
Additional hops: 305
Set signal latency stall time: 6
Additional hops: 312
Set signal latency stall time: 14
Additional hops: 316
Set signal latency stall time: 8
Reenqueueing errored packet 7098 at time 277
Reenqueueing errored packet 9621 at time 278
Reenqueueing errored packet 10842 at time 279
Reenqueueing errored packet 7576 at time 282
Reenqueueing errored packet 8566 at time 285
Reenqueueing errored packet 6881 at time 290
Additional hops: 322
Set signal latency stall time: 12
Additional hops: 328
Set signal latency stall time: 12
Additional hops: 333
Set signal latency stall time: 10
Reenqueueing errored packet 9377 at time 316
Reenqueueing errored packet 9907 at time 317
Reenqueueing errored packet 10158 at time 325
Additional hops: 344
Set signal latency stall time: 22
Additional hops: 349
Set signal latency stall time: 10
Additional hops: 355
Set signal latency stall time: 12
Additional hops: 358
Set signal latency stall time: 6
Additional hops: 363
Set signal latency stall time: 10
Additional hops: 370
Set signal latency stall time: 14
Reenqueueing errored packet 13368 at time 343
Reenqueueing errored packet 12639 at time 343
Reenqueueing errored packet 11453 at time 347
Reenqueueing errored packet 11400 at time 348
Reenqueueing errored packet 8265 at time 354
Additional hops: 378
Set signal latency stall time: 16
Reenqueueing errored packet 9233 at time 356
Additional hops: 381
Set signal latency stall time: 6
Additional hops: 391
Set signal latency stall time: 20
Reenqueueing errored packet 13934 at time 366
Additional hops: 400
Set signal latency stall time: 18
Reenqueueing errored packet 7850 at time 371
Additional hops: 410
Set signal latency stall time: 20
Additional hops: 416
Set signal latency stall time: 12
Reenqueueing errored packet 9514 at time 382
Additional hops: 425
Set signal latency stall time: 18
Additional hops: 436
Set signal latency stall time: 22
Reenqueueing errored packet 12148 at time 387
Reenqueueing errored packet 10914 at time 389
Additional hops: 448
Set signal latency stall time: 24
Additional hops: 454
Set signal latency stall time: 12
Additional hops: 457
Set signal latency stall time: 6
Additional hops: 470
Set signal latency stall time: 26
Additional hops: 473
Set signal latency stall time: 6
Reenqueueing errored packet 10793 at time 396
Additional hops: 483
Set signal latency stall time: 20
Reenqueueing errored packet 13154 at time 399
Reenqueueing errored packet 15749 at time 400
Additional hops: 490
Set signal latency stall time: 14
Additional hops: 500
Set signal latency stall time: 20
Additional hops: 505
Set signal latency stall time: 10
Additional hops: 511
Set signal latency stall time: 12
Reenqueueing errored packet 11321 at time 403
Reenqueueing errored packet 10762 at time 405
Reenqueueing errored packet 8489 at time 409
Reenqueueing errored packet 14625 at time 412
Reenqueueing errored packet 8920 at time 414
Additional hops: 521
Set signal latency stall time: 20
Reenqueueing errored packet 10311 at time 415
Reenqueueing errored packet 13497 at time 415
Additional hops: 532
Set signal latency stall time: 22
Reenqueueing errored packet 10079 at time 418
Reenqueueing errored packet 9300 at time 419
Additional hops: 540
Set signal latency stall time: 16
Reenqueueing errored packet 10711 at time 421
Additional hops: 548
Set signal latency stall time: 16
Additional hops: 555
Set signal latency stall time: 14
Additional hops: 562
Set signal latency stall time: 14
Reenqueueing errored packet 10408 at time 435
Reenqueueing errored packet 11919 at time 436
Additional hops: 571
Set signal latency stall time: 18
Reenqueueing errored packet 11405 at time 438
Reenqueueing errored packet 13340 at time 440
Reenqueueing errored packet 12392 at time 441
Additional hops: 578
Set signal latency stall time: 14
Reenqueueing errored packet 11158 at time 445
Additional hops: 580
Set signal latency stall time: 4
Additional hops: 586
Set signal latency stall time: 12
Reenqueueing errored packet 13457 at time 456
Reenqueueing errored packet 18550 at time 458
Additional hops: 589
Set signal latency stall time: 6
Reenqueueing errored packet 14779 at time 468
Additional hops: 591
Set signal latency stall time: 4
Additional hops: 601
Set signal latency stall time: 20
Additional hops: 603
Set signal latency stall time: 4
Reenqueueing errored packet 19178 at time 473
Reenqueueing errored packet 18970 at time 474
Additional hops: 611
Set signal latency stall time: 16
Additional hops: 617
Set signal latency stall time: 12
Reenqueueing errored packet 19374 at time 477
Additional hops: 623
Set signal latency stall time: 12
Additional hops: 625
Set signal latency stall time: 4
Additional hops: 632
Set signal latency stall time: 14
Additional hops: 641
Set signal latency stall time: 18
Additional hops: 652
Set signal latency stall time: 22
Additional hops: 659
Set signal latency stall time: 14
Reenqueueing errored packet 18698 at time 486
Additional hops: 671
Set signal latency stall time: 24
Reenqueueing errored packet 10188 at time 489
Reenqueueing errored packet 13792 at time 490
Additional hops: 680
Set signal latency stall time: 18
Reenqueueing errored packet 14347 at time 491
Reenqueueing errored packet 14662 at time 494
Reenqueueing errored packet 14484 at time 496
Additional hops: 685
Set signal latency stall time: 10
Additional hops: 692
Set signal latency stall time: 14
Additional hops: 699
Set signal latency stall time: 14
Reenqueueing errored packet 15201 at time 500
Reenqueueing errored packet 15332 at time 501
Additional hops: 703
Set signal latency stall time: 8
Additional hops: 714
Set signal latency stall time: 22
Reenqueueing errored packet 9532 at time 506
Reenqueueing errored packet 17930 at time 509
Reenqueueing errored packet 14786 at time 509
Reenqueueing errored packet 16776 at time 511
Reenqueueing errored packet 9649 at time 512
Additional hops: 724
Set signal latency stall time: 20
Reenqueueing errored packet 15394 at time 513
Reenqueueing errored packet 18342 at time 514
Additional hops: 729
Set signal latency stall time: 10
Additional hops: 733
Set signal latency stall time: 8
Additional hops: 738
Set signal latency stall time: 10
Additional hops: 742
Set signal latency stall time: 8
Reenqueueing errored packet 19176 at time 525
Reenqueueing errored packet 11418 at time 525
Additional hops: 747
Set signal latency stall time: 10
Additional hops: 755
Set signal latency stall time: 16
Additional hops: 760
Set signal latency stall time: 10
Reenqueueing errored packet 20619 at time 527
Additional hops: 769
Set signal latency stall time: 18
Reenqueueing errored packet 19378 at time 532
Reenqueueing errored packet 17997 at time 533
Reenqueueing errored packet 13833 at time 533
Reenqueueing errored packet 19650 at time 536
Reenqueueing errored packet 18714 at time 536
Additional hops: 774
Set signal latency stall time: 10
Additional hops: 779
Set signal latency stall time: 10
Reenqueueing errored packet 17165 at time 542
Additional hops: 787
Set signal latency stall time: 16
Additional hops: 795
Set signal latency stall time: 16
Additional hops: 804
Set signal latency stall time: 18
Additional hops: 808
Set signal latency stall time: 8
Reenqueueing errored packet 18778 at time 549
Reenqueueing errored packet 18323 at time 550
Reenqueueing errored packet 13012 at time 550
Additional hops: 813
Set signal latency stall time: 10
Reenqueueing errored packet 21889 at time 555
Additional hops: 822
Set signal latency stall time: 18
Reenqueueing errored packet 17626 at time 559
Reenqueueing errored packet 11424 at time 559
Reenqueueing errored packet 18626 at time 564
Reenqueueing errored packet 12904 at time 565
Additional hops: 829
Set signal latency stall time: 14
Additional hops: 834
Set signal latency stall time: 10
Reenqueueing errored packet 19200 at time 576
Additional hops: 843
Set signal latency stall time: 18
Additional hops: 853
Set signal latency stall time: 20
Reenqueueing errored packet 20221 at time 586
Reenqueueing errored packet 20152 at time 588
Reenqueueing errored packet 14885 at time 595
Additional hops: 862
Set signal latency stall time: 18
Additional hops: 869
Set signal latency stall time: 14
Reenqueueing errored packet 18481 at time 605
Additional hops: 879
Set signal latency stall time: 20
Additional hops: 886
Set signal latency stall time: 14
Reenqueueing errored packet 18982 at time 615
Reenqueueing errored packet 19592 at time 619
Reenqueueing errored packet 20423 at time 623
Additional hops: 897
Set signal latency stall time: 22
Additional hops: 907
Set signal latency stall time: 20
Reenqueueing errored packet 12826 at time 626
Additional hops: 912
Set signal latency stall time: 10
Additional hops: 917
Set signal latency stall time: 10
Additional hops: 922
Set signal latency stall time: 10
Reenqueueing errored packet 21102 at time 637
Additional hops: 935
Set signal latency stall time: 26
Additional hops: 944
Set signal latency stall time: 18
Reenqueueing errored packet 22710 at time 641
Additional hops: 953
Set signal latency stall time: 18
Additional hops: 961
Set signal latency stall time: 16
Reenqueueing errored packet 15435 at time 644
Reenqueueing errored packet 22697 at time 645
Reenqueueing errored packet 16173 at time 646
Additional hops: 966
Set signal latency stall time: 10
Additional hops: 975
Set signal latency stall time: 18
Reenqueueing errored packet 20292 at time 657
Reenqueueing errored packet 14853 at time 660
Reenqueueing errored packet 22792 at time 660
Reenqueueing errored packet 18531 at time 662
Reenqueueing errored packet 13151 at time 665
Reenqueueing errored packet 16374 at time 674
Additional hops: 981
Set signal latency stall time: 12
Additional hops: 988
Set signal latency stall time: 14
Additional hops: 992
Set signal latency stall time: 8
Additional hops: 1001
Set signal latency stall time: 18
Additional hops: 1010
Set signal latency stall time: 18
Additional hops: 1018
Set signal latency stall time: 16
Additional hops: 1027
Set signal latency stall time: 18
Reenqueueing errored packet 23560 at time 695
Reenqueueing errored packet 28029 at time 696
Additional hops: 1036
Set signal latency stall time: 18
Reenqueueing errored packet 19898 at time 699
Additional hops: 1041
Set signal latency stall time: 10
Additional hops: 1046
Set signal latency stall time: 10
Additional hops: 1058
Set signal latency stall time: 24
Additional hops: 1070
Set signal latency stall time: 24
Reenqueueing errored packet 17250 at time 709
Reenqueueing errored packet 19422 at time 709
Reenqueueing errored packet 28033 at time 710
Reenqueueing errored packet 28418 at time 710
Reenqueueing errored packet 17208 at time 711
Reenqueueing errored packet 18250 at time 712
Additional hops: 1076
Set signal latency stall time: 12
Reenqueueing errored packet 24672 at time 717
Additional hops: 1083
Set signal latency stall time: 14
Additional hops: 1091
Set signal latency stall time: 16
Additional hops: 1099
Set signal latency stall time: 16
Additional hops: 1110
Set signal latency stall time: 22
Reenqueueing errored packet 24184 at time 726
Reenqueueing errored packet 16887 at time 729
Reenqueueing errored packet 22156 at time 733
Reenqueueing errored packet 17497 at time 733
Reenqueueing errored packet 19549 at time 737
Reenqueueing errored packet 21210 at time 738
Reenqueueing errored packet 17069 at time 745
Additional hops: 1117
Set signal latency stall time: 14
Additional hops: 1123
Set signal latency stall time: 12
Additional hops: 1131
Set signal latency stall time: 16
Additional hops: 1135
Set signal latency stall time: 8
Additional hops: 1142
Set signal latency stall time: 14
Reenqueueing errored packet 22718 at time 766
Reenqueueing errored packet 28678 at time 767
Additional hops: 1152
Set signal latency stall time: 20
Additional hops: 1161
Set signal latency stall time: 18
Additional hops: 1164
Set signal latency stall time: 6
Additional hops: 1174
Set signal latency stall time: 20
Additional hops: 1180
Set signal latency stall time: 12
Reenqueueing errored packet 27187 at time 772
Additional hops: 1186
Set signal latency stall time: 12
Additional hops: 1192
Set signal latency stall time: 12
Additional hops: 1195
Set signal latency stall time: 6
Reenqueueing errored packet 27175 at time 777
Additional hops: 1202
Set signal latency stall time: 14
Reenqueueing errored packet 21900 at time 778
Reenqueueing errored packet 27138 at time 779
Additional hops: 1210
Set signal latency stall time: 16
Reenqueueing errored packet 31387 at time 782
Reenqueueing errored packet 22806 at time 784
Reenqueueing errored packet 25242 at time 785
Additional hops: 1217
Set signal latency stall time: 14
Reenqueueing errored packet 22968 at time 786
Reenqueueing errored packet 20143 at time 789
Reenqueueing errored packet 19457 at time 789
Reenqueueing errored packet 28785 at time 792
Reenqueueing errored packet 27023 at time 792
Additional hops: 1230
Set signal latency stall time: 26
Reenqueueing errored packet 22723 at time 796
Reenqueueing errored packet 22478 at time 800
Additional hops: 1239
Set signal latency stall time: 18
Additional hops: 1249
Set signal latency stall time: 20
Additional hops: 1259
Set signal latency stall time: 20
Additional hops: 1265
Set signal latency stall time: 12
Additional hops: 1270
Set signal latency stall time: 10
Reenqueueing errored packet 17496 at time 819
Additional hops: 1275
Set signal latency stall time: 10
Additional hops: 1282
Set signal latency stall time: 14
Reenqueueing errored packet 24534 at time 825
Additional hops: 1285
Set signal latency stall time: 6
Reenqueueing errored packet 32869 at time 828
Reenqueueing errored packet 25663 at time 828
Additional hops: 1289
Set signal latency stall time: 8
Reenqueueing errored packet 29049 at time 830
Reenqueueing errored packet 34002 at time 834
Reenqueueing errored packet 20208 at time 834
Reenqueueing errored packet 20658 at time 835
Reenqueueing errored packet 31154 at time 838
Additional hops: 1294
Set signal latency stall time: 10
Reenqueueing errored packet 30079 at time 839
Additional hops: 1299
Set signal latency stall time: 10
Reenqueueing errored packet 30957 at time 849
Additional hops: 1301
Set signal latency stall time: 4
Reenqueueing errored packet 34911 at time 854
Reenqueueing errored packet 28567 at time 854
Additional hops: 1309
Set signal latency stall time: 16
Additional hops: 1317
Set signal latency stall time: 16
Additional hops: 1321
Set signal latency stall time: 8
Additional hops: 1330
Set signal latency stall time: 18
Reenqueueing errored packet 35282 at time 873
Additional hops: 1339
Set signal latency stall time: 18
Reenqueueing errored packet 25385 at time 877
Reenqueueing errored packet 29703 at time 878
Reenqueueing errored packet 28801 at time 885
Additional hops: 1342
Set signal latency stall time: 6
Additional hops: 1350
Set signal latency stall time: 16
Additional hops: 1355
Set signal latency stall time: 10
Reenqueueing errored packet 36396 at time 893
Reenqueueing errored packet 28321 at time 895
Reenqueueing errored packet 27180 at time 900
Additional hops: 1361
Set signal latency stall time: 12
Reenqueueing errored packet 30484 at time 905
Additional hops: 1370
Set signal latency stall time: 18
Additional hops: 1379
Set signal latency stall time: 18
Additional hops: 1385
Set signal latency stall time: 12
Reenqueueing errored packet 26861 at time 913
Additional hops: 1391
Set signal latency stall time: 12
Additional hops: 1401
Set signal latency stall time: 20
Reenqueueing errored packet 31635 at time 924
Additional hops: 1404
Set signal latency stall time: 6
Reenqueueing errored packet 24301 at time 927
Additional hops: 1414
Set signal latency stall time: 20
Reenqueueing errored packet 27474 at time 930
Additional hops: 1421
Set signal latency stall time: 14
Additional hops: 1427
Set signal latency stall time: 12
Additional hops: 1433
Set signal latency stall time: 12
Reenqueueing errored packet 33963 at time 933
Additional hops: 1442
Set signal latency stall time: 18
Additional hops: 1455
Set signal latency stall time: 26
Reenqueueing errored packet 24022 at time 943
Reenqueueing errored packet 28797 at time 944
Reenqueueing errored packet 25182 at time 945
Reenqueueing errored packet 30200 at time 946
Reenqueueing errored packet 28670 at time 950
Additional hops: 1458
Set signal latency stall time: 6
Additional hops: 1465
Set signal latency stall time: 14
Reenqueueing errored packet 31383 at time 953
Additional hops: 1473
Set signal latency stall time: 16
Additional hops: 1476
Set signal latency stall time: 6
Additional hops: 1486
Set signal latency stall time: 20
Reenqueueing errored packet 30876 at time 957
Additional hops: 1495
Set signal latency stall time: 18
Additional hops: 1500
Set signal latency stall time: 10
Reenqueueing errored packet 38922 at time 963
Reenqueueing errored packet 22662 at time 966
Reenqueueing errored packet 28926 at time 967
Additional hops: 1503
Set signal latency stall time: 6
Reenqueueing errored packet 32420 at time 972
Reenqueueing errored packet 28175 at time 973
Additional hops: 1507
Set signal latency stall time: 8
Reenqueueing errored packet 31855 at time 977
Reenqueueing errored packet 25897 at time 977
Reenqueueing errored packet 22584 at time 977
Reenqueueing errored packet 35459 at time 984
Additional hops: 1514
Set signal latency stall time: 14
Additional hops: 1525
Set signal latency stall time: 22
Additional hops: 1534
Set signal latency stall time: 18
Additional hops: 1543
Set signal latency stall time: 18
Additional hops: 1546
Set signal latency stall time: 6
Additional hops: 1552
Set signal latency stall time: 12
Additional hops: 1555
Set signal latency stall time: 6
Reenqueueing errored packet 34375 at time 1003
Reenqueueing errored packet 34024 at time 1005
Additional hops: 1559
Set signal latency stall time: 8
Additional hops: 1565
Set signal latency stall time: 12
Reenqueueing errored packet 41080 at time 1009
Reenqueueing errored packet 31213 at time 1011
Reenqueueing errored packet 29503 at time 1013
Reenqueueing errored packet 28894 at time 1014
Reenqueueing errored packet 35148 at time 1014
Reenqueueing errored packet 23239 at time 1014
Reenqueueing errored packet 31941 at time 1019
Additional hops: 1569
Set signal latency stall time: 8
Additional hops: 1575
Set signal latency stall time: 12
Additional hops: 1581
Set signal latency stall time: 12
Reenqueueing errored packet 31970 at time 1030
Additional hops: 1584
Set signal latency stall time: 6
Reenqueueing errored packet 36314 at time 1035
Reenqueueing errored packet 36253 at time 1037
Reenqueueing errored packet 42242 at time 1038
Additional hops: 1593
Set signal latency stall time: 18
Additional hops: 1596
Set signal latency stall time: 6
Additional hops: 1602
Set signal latency stall time: 12
Reenqueueing errored packet 37850 at time 1050
Additional hops: 1606
Set signal latency stall time: 8
Additional hops: 1615
Set signal latency stall time: 18
Reenqueueing errored packet 27334 at time 1058
Reenqueueing errored packet 42081 at time 1062
Reenqueueing errored packet 31254 at time 1065
Reenqueueing errored packet 27961 at time 1076
Additional hops: 1620
Set signal latency stall time: 10
Additional hops: 1631
Set signal latency stall time: 22
Additional hops: 1641
Set signal latency stall time: 20
Reenqueueing errored packet 44104 at time 1091
Additional hops: 1645
Set signal latency stall time: 8
Reenqueueing errored packet 39528 at time 1100
Additional hops: 1654
Set signal latency stall time: 18
Reenqueueing errored packet 27782 at time 1106
Reenqueueing errored packet 36854 at time 1110
Additional hops: 1665
Set signal latency stall time: 22
Reenqueueing errored packet 26752 at time 1119
Additional hops: 1669
Set signal latency stall time: 8
Additional hops: 1675
Set signal latency stall time: 12
Additional hops: 1686
Set signal latency stall time: 22
Additional hops: 1690
Set signal latency stall time: 8
Reenqueueing errored packet 34348 at time 1138
Reenqueueing errored packet 31644 at time 1138
Reenqueueing errored packet 46636 at time 1145
Additional hops: 1693
Set signal latency stall time: 6
Reenqueueing errored packet 32083 at time 1147
Additional hops: 1700
Set signal latency stall time: 14
Reenqueueing errored packet 47046 at time 1152
Reenqueueing errored packet 32848 at time 1159
Additional hops: 1710
Set signal latency stall time: 20
Additional hops: 1715
Set signal latency stall time: 10
Additional hops: 1726
Set signal latency stall time: 22
Additional hops: 1730
Set signal latency stall time: 8
Reenqueueing errored packet 32278 at time 1165
Reenqueueing errored packet 47652 at time 1169
Additional hops: 1735
Set signal latency stall time: 10
Reenqueueing errored packet 39772 at time 1170
Additional hops: 1742
Set signal latency stall time: 14
Reenqueueing errored packet 44064 at time 1180
Reenqueueing errored packet 29683 at time 1180
Additional hops: 1743
Set signal latency stall time: 2
Reenqueueing errored packet 48927 at time 1183
Reenqueueing errored packet 28004 at time 1183
Reenqueueing errored packet 41589 at time 1193
Additional hops: 1751
Set signal latency stall time: 16
Additional hops: 1757
Set signal latency stall time: 12
Additional hops: 1764
Set signal latency stall time: 14
Additional hops: 1775
Set signal latency stall time: 22
Additional hops: 1782
Set signal latency stall time: 14
Additional hops: 1792
Set signal latency stall time: 20
Reenqueueing errored packet 42726 at time 1207
Reenqueueing errored packet 32328 at time 1211
Reenqueueing errored packet 36807 at time 1213
Reenqueueing errored packet 37598 at time 1215
Additional hops: 1800
Set signal latency stall time: 16
Reenqueueing errored packet 28191 at time 1222
Additional hops: 1809
Set signal latency stall time: 18
Additional hops: 1814
Set signal latency stall time: 10
Reenqueueing errored packet 31106 at time 1226
Additional hops: 1823
Set signal latency stall time: 18
Additional hops: 1834
Set signal latency stall time: 22
Reenqueueing errored packet 33851 at time 1233
Additional hops: 1848
Set signal latency stall time: 28
Reenqueueing errored packet 43763 at time 1236
Additional hops: 1851
Set signal latency stall time: 6
Additional hops: 1857
Set signal latency stall time: 12
Additional hops: 1865
Set signal latency stall time: 16
Reenqueueing errored packet 38977 at time 1242
Reenqueueing errored packet 50840 at time 1243
Reenqueueing errored packet 28971 at time 1247
Additional hops: 1870
Set signal latency stall time: 10
Additional hops: 1876
Set signal latency stall time: 12
Additional hops: 1884
Set signal latency stall time: 16
Reenqueueing errored packet 41731 at time 1251
Additional hops: 1885
Set signal latency stall time: 2
Reenqueueing errored packet 35136 at time 1253
Additional hops: 1891
Set signal latency stall time: 12
Reenqueueing errored packet 51873 at time 1255
Reenqueueing errored packet 33713 at time 1257
Reenqueueing errored packet 45717 at time 1258
Additional hops: 1900
Set signal latency stall time: 18
Additional hops: 1913
Set signal latency stall time: 26
Reenqueueing errored packet 40800 at time 1261
Reenqueueing errored packet 29121 at time 1263
Additional hops: 1922
Set signal latency stall time: 18
Reenqueueing errored packet 41439 at time 1267
Reenqueueing errored packet 44495 at time 1267
Additional hops: 1926
Set signal latency stall time: 8
Additional hops: 1935
Set signal latency stall time: 18
Reenqueueing errored packet 37214 at time 1277
Additional hops: 1944
Set signal latency stall time: 18
Reenqueueing errored packet 42421 at time 1284
Reenqueueing errored packet 44404 at time 1284
Reenqueueing errored packet 30116 at time 1285
Additional hops: 1952
Set signal latency stall time: 16
Additional hops: 1958
Set signal latency stall time: 12
Additional hops: 1969
Set signal latency stall time: 22
Reenqueueing errored packet 29556 at time 1294
Reenqueueing errored packet 48265 at time 1299
Reenqueueing errored packet 38081 at time 1299
Reenqueueing errored packet 38409 at time 1302
Additional hops: 1978
Set signal latency stall time: 18
Additional hops: 1983
Set signal latency stall time: 10
Additional hops: 1987
Set signal latency stall time: 8
Reenqueueing errored packet 29804 at time 1316
Reenqueueing errored packet 31608 at time 1323
Reenqueueing errored packet 54104 at time 1324
Reenqueueing errored packet 38205 at time 1325
Additional hops: 1992
Set signal latency stall time: 10
Additional hops: 1997
Set signal latency stall time: 10
Additional hops: 2007
Set signal latency stall time: 20
Additional hops: 2012
Set signal latency stall time: 10
Reenqueueing errored packet 47049 at time 1337
Additional hops: 2021
Set signal latency stall time: 18
Additional hops: 2030
Set signal latency stall time: 18
Additional hops: 2039
Set signal latency stall time: 18
Reenqueueing errored packet 46618 at time 1346
Additional hops: 2042
Set signal latency stall time: 6
Reenqueueing errored packet 39836 at time 1347
Reenqueueing errored packet 54776 at time 1353
Reenqueueing errored packet 38197 at time 1357
Reenqueueing errored packet 33891 at time 1357
Additional hops: 2048
Set signal latency stall time: 12
Reenqueueing errored packet 47175 at time 1360
Reenqueueing errored packet 38228 at time 1360
Additional hops: 2056
Set signal latency stall time: 16
Additional hops: 2069
Set signal latency stall time: 26
Additional hops: 2075
Set signal latency stall time: 12
Reenqueueing errored packet 48575 at time 1371
Additional hops: 2077
Set signal latency stall time: 4
Reenqueueing errored packet 50657 at time 1377
Reenqueueing errored packet 46184 at time 1378
Additional hops: 2086
Set signal latency stall time: 18
Additional hops: 2097
Set signal latency stall time: 22
Reenqueueing errored packet 54202 at time 1381
Reenqueueing errored packet 32747 at time 1389
Additional hops: 2103
Set signal latency stall time: 12
Additional hops: 2111
Set signal latency stall time: 16
Additional hops: 2120
Set signal latency stall time: 18
Reenqueueing errored packet 33299 at time 1398
Reenqueueing errored packet 35107 at time 1402
Reenqueueing errored packet 52678 at time 1403
Additional hops: 2129
Set signal latency stall time: 18
Additional hops: 2137
Set signal latency stall time: 16
Reenqueueing errored packet 49921 at time 1412
Reenqueueing errored packet 37089 at time 1416
Additional hops: 2139
Set signal latency stall time: 4
Additional hops: 2146
Set signal latency stall time: 14
Additional hops: 2151
Set signal latency stall time: 10
Reenqueueing errored packet 58276 at time 1421
Additional hops: 2157
Set signal latency stall time: 12
Additional hops: 2166
Set signal latency stall time: 18
Additional hops: 2172
Set signal latency stall time: 12
Reenqueueing errored packet 46401 at time 1424
Additional hops: 2175
Set signal latency stall time: 6
Additional hops: 2185
Set signal latency stall time: 20
Reenqueueing errored packet 39987 at time 1425
Additional hops: 2187
Set signal latency stall time: 4
Additional hops: 2191
Set signal latency stall time: 8
Additional hops: 2196
Set signal latency stall time: 10
Additional hops: 2201
Set signal latency stall time: 10
Additional hops: 2212
Set signal latency stall time: 22
Reenqueueing errored packet 58852 at time 1430
Reenqueueing errored packet 42482 at time 1430
Reenqueueing errored packet 52527 at time 1431
Reenqueueing errored packet 50723 at time 1431
Additional hops: 2221
Set signal latency stall time: 18
Reenqueueing errored packet 37453 at time 1435
Reenqueueing errored packet 43582 at time 1436
Reenqueueing errored packet 39871 at time 1436
Reenqueueing errored packet 51883 at time 1438
Reenqueueing errored packet 53756 at time 1439
Reenqueueing errored packet 44576 at time 1442
Reenqueueing errored packet 39830 at time 1445
Additional hops: 2229
Set signal latency stall time: 16
Additional hops: 2232
Set signal latency stall time: 6
Additional hops: 2235
Set signal latency stall time: 6
Reenqueueing errored packet 44745 at time 1450
Additional hops: 2241
Set signal latency stall time: 12
Reenqueueing errored packet 46883 at time 1452
Reenqueueing errored packet 37296 at time 1452
Reenqueueing errored packet 59632 at time 1453
Additional hops: 2250
Set signal latency stall time: 18
Additional hops: 2262
Set signal latency stall time: 24
Reenqueueing errored packet 40828 at time 1462
Reenqueueing errored packet 41512 at time 1464
Additional hops: 2270
Set signal latency stall time: 16
Additional hops: 2273
Set signal latency stall time: 6
Reenqueueing errored packet 44405 at time 1474
Additional hops: 2278
Set signal latency stall time: 10
Additional hops: 2287
Set signal latency stall time: 18
Reenqueueing errored packet 60588 at time 1479
Additional hops: 2295
Set signal latency stall time: 16
Reenqueueing errored packet 41715 at time 1484
Reenqueueing errored packet 33328 at time 1485
Additional hops: 2298
Set signal latency stall time: 6
Additional hops: 2305
Set signal latency stall time: 14
Reenqueueing errored packet 52731 at time 1488
Reenqueueing errored packet 60675 at time 1494
Reenqueueing errored packet 40398 at time 1496
Additional hops: 2308
Set signal latency stall time: 6
Additional hops: 2311
Set signal latency stall time: 6
Reenqueueing errored packet 44758 at time 1498
Additional hops: 2318
Set signal latency stall time: 14
Additional hops: 2324
Set signal latency stall time: 12
Reenqueueing errored packet 44156 at time 1502
Additional hops: 2328
Set signal latency stall time: 8
Reenqueueing errored packet 61765 at time 1504
Reenqueueing errored packet 61614 at time 1504
Reenqueueing errored packet 56876 at time 1512
Reenqueueing errored packet 55132 at time 1512
Reenqueueing errored packet 37815 at time 1513
Additional hops: 2333
Set signal latency stall time: 10
Additional hops: 2341
Set signal latency stall time: 16
Additional hops: 2350
Set signal latency stall time: 18
Additional hops: 2354
Set signal latency stall time: 8
Reenqueueing errored packet 62133 at time 1530
Additional hops: 2359
Set signal latency stall time: 10
Additional hops: 2367
Set signal latency stall time: 16
Reenqueueing errored packet 62539 at time 1536
Additional hops: 2375
Set signal latency stall time: 16
Reenqueueing errored packet 57514 at time 1542
Reenqueueing errored packet 50355 at time 1542
Additional hops: 2387
Set signal latency stall time: 24
Reenqueueing errored packet 43449 at time 1545
Additional hops: 2393
Set signal latency stall time: 12
Reenqueueing errored packet 51813 at time 1549
Reenqueueing errored packet 45493 at time 1554
Additional hops: 2399
Set signal latency stall time: 12
Additional hops: 2404
Set signal latency stall time: 10
Additional hops: 2411
Set signal latency stall time: 14
Reenqueueing errored packet 62883 at time 1561
Additional hops: 2417
Set signal latency stall time: 12
Reenqueueing errored packet 39066 at time 1569
Additional hops: 2425
Set signal latency stall time: 16
Reenqueueing errored packet 45514 at time 1570
Reenqueueing errored packet 57650 at time 1570
Additional hops: 2437
Set signal latency stall time: 24
Reenqueueing errored packet 50365 at time 1575
Additional hops: 2445
Set signal latency stall time: 16
Reenqueueing errored packet 51895 at time 1580
Additional hops: 2453
Set signal latency stall time: 16
Reenqueueing errored packet 52155 at time 1586
Additional hops: 2457
Set signal latency stall time: 8
Additional hops: 2460
Set signal latency stall time: 6
Reenqueueing errored packet 45339 at time 1596
Reenqueueing errored packet 45683 at time 1598
Reenqueueing errored packet 57585 at time 1599
Reenqueueing errored packet 40117 at time 1599
Additional hops: 2464
Set signal latency stall time: 8
Reenqueueing errored packet 60472 at time 1601
Additional hops: 2470
Set signal latency stall time: 12
Additional hops: 2474
Set signal latency stall time: 8
Reenqueueing errored packet 61855 at time 1608
Additional hops: 2484
Set signal latency stall time: 20
Reenqueueing errored packet 66019 at time 1616
Reenqueueing errored packet 45037 at time 1616
Additional hops: 2489
Set signal latency stall time: 10
Additional hops: 2497
Set signal latency stall time: 16
Additional hops: 2502
Set signal latency stall time: 10
Additional hops: 2510
Set signal latency stall time: 16
Additional hops: 2516
Set signal latency stall time: 12
Additional hops: 2526
Set signal latency stall time: 20
Reenqueueing errored packet 54823 at time 1628
Reenqueueing errored packet 44676 at time 1630
Additional hops: 2531
Set signal latency stall time: 10
Additional hops: 2535
Set signal latency stall time: 8
Reenqueueing errored packet 57277 at time 1634
Reenqueueing errored packet 44113 at time 1635
Additional hops: 2536
Set signal latency stall time: 2
Additional hops: 2540
Set signal latency stall time: 8
Reenqueueing errored packet 54603 at time 1637
Reenqueueing errored packet 67728 at time 1638
Reenqueueing errored packet 45325 at time 1638
Additional hops: 2546
Set signal latency stall time: 12
Reenqueueing errored packet 66355 at time 1641
Reenqueueing errored packet 66978 at time 1641
Additional hops: 2550
Set signal latency stall time: 8
Additional hops: 2552
Set signal latency stall time: 4
Reenqueueing errored packet 67289 at time 1644
Additional hops: 2560
Set signal latency stall time: 16
Reenqueueing errored packet 60694 at time 1648
Reenqueueing errored packet 45039 at time 1648
Reenqueueing errored packet 55917 at time 1650
Additional hops: 2568
Set signal latency stall time: 16
Reenqueueing errored packet 57642 at time 1652
Additional hops: 2574
Set signal latency stall time: 12
Reenqueueing errored packet 58945 at time 1662
Additional hops: 2582
Set signal latency stall time: 16
Additional hops: 2591
Set signal latency stall time: 18
Additional hops: 2597
Set signal latency stall time: 12
Reenqueueing errored packet 52988 at time 1666
Reenqueueing errored packet 47721 at time 1668
Additional hops: 2603
Set signal latency stall time: 12
Additional hops: 2612
Set signal latency stall time: 18
Additional hops: 2616
Set signal latency stall time: 8
Reenqueueing errored packet 59295 at time 1678
Reenqueueing errored packet 56771 at time 1680
Additional hops: 2623
Set signal latency stall time: 14
Additional hops: 2630
Set signal latency stall time: 14
Reenqueueing errored packet 46384 at time 1683
Additional hops: 2637
Set signal latency stall time: 14
Reenqueueing errored packet 62825 at time 1685
Reenqueueing errored packet 50873 at time 1686
Additional hops: 2643
Set signal latency stall time: 12
Reenqueueing errored packet 59428 at time 1693
Additional hops: 2654
Set signal latency stall time: 22
Additional hops: 2660
Set signal latency stall time: 12
Reenqueueing errored packet 54589 at time 1696
Reenqueueing errored packet 55903 at time 1696
Reenqueueing errored packet 46965 at time 1698
Additional hops: 2670
Set signal latency stall time: 20
Additional hops: 2680
Set signal latency stall time: 20
Reenqueueing errored packet 49678 at time 1703
Reenqueueing errored packet 68818 at time 1706
Reenqueueing errored packet 50797 at time 1716
Additional hops: 2683
Set signal latency stall time: 6
Reenqueueing errored packet 44138 at time 1721
Reenqueueing errored packet 59920 at time 1723
Reenqueueing errored packet 62901 at time 1725
Additional hops: 2686
Set signal latency stall time: 6
Additional hops: 2691
Set signal latency stall time: 10
Reenqueueing errored packet 71372 at time 1736
Additional hops: 2700
Set signal latency stall time: 18
Additional hops: 2706
Set signal latency stall time: 12
Reenqueueing errored packet 56841 at time 1743
Additional hops: 2713
Set signal latency stall time: 14
Additional hops: 2714
Set signal latency stall time: 2
Additional hops: 2723
Set signal latency stall time: 18
Reenqueueing errored packet 72326 at time 1749
Additional hops: 2729
Set signal latency stall time: 12
Reenqueueing errored packet 59545 at time 1755
Additional hops: 2735
Set signal latency stall time: 12
Reenqueueing errored packet 48286 at time 1758
Additional hops: 2742
Set signal latency stall time: 14
Reenqueueing errored packet 46397 at time 1760
Additional hops: 2748
Set signal latency stall time: 12
Reenqueueing errored packet 63109 at time 1765
Reenqueueing errored packet 51174 at time 1767
Reenqueueing errored packet 51359 at time 1769
Additional hops: 2753
Set signal latency stall time: 10
Reenqueueing errored packet 51693 at time 1774
Additional hops: 2762
Set signal latency stall time: 18
Reenqueueing errored packet 59123 at time 1777
Reenqueueing errored packet 59810 at time 1783
Additional hops: 2772
Set signal latency stall time: 20
Additional hops: 2777
Set signal latency stall time: 10
Additional hops: 2779
Set signal latency stall time: 4
Reenqueueing errored packet 42533 at time 1793
Reenqueueing errored packet 73997 at time 1796
Reenqueueing errored packet 60115 at time 1798
Additional hops: 2782
Set signal latency stall time: 6
Additional hops: 2790
Set signal latency stall time: 16
Additional hops: 2794
Set signal latency stall time: 8
Reenqueueing errored packet 52511 at time 1804
Reenqueueing errored packet 74260 at time 1806
Additional hops: 2801
Set signal latency stall time: 14
Reenqueueing errored packet 61004 at time 1811
Additional hops: 2817
Set signal latency stall time: 32
Reenqueueing errored packet 64375 at time 1819
Reenqueueing errored packet 49455 at time 1823
Additional hops: 2824
Set signal latency stall time: 14
Additional hops: 2837
Set signal latency stall time: 26
Additional hops: 2845
Set signal latency stall time: 16
Additional hops: 2849
Set signal latency stall time: 8
Reenqueueing errored packet 67114 at time 1838
Reenqueueing errored packet 58542 at time 1838
Reenqueueing errored packet 61503 at time 1843
Additional hops: 2855
Set signal latency stall time: 12
Additional hops: 2860
Set signal latency stall time: 10
Reenqueueing errored packet 38409 at time 1850
Reenqueueing errored packet 44257 at time 1852
Reenqueueing errored packet 63498 at time 1856
Additional hops: 2867
Set signal latency stall time: 14
Reenqueueing errored packet 67406 at time 1857
Additional hops: 2873
Set signal latency stall time: 12
Additional hops: 2878
Set signal latency stall time: 10
Reenqueueing errored packet 46512 at time 1871
Reenqueueing errored packet 64398 at time 1879
Reenqueueing errored packet 64758 at time 1881
Additional hops: 2884
Set signal latency stall time: 12
Additional hops: 2888
Set signal latency stall time: 8
Additional hops: 2892
Set signal latency stall time: 8
Additional hops: 2900
Set signal latency stall time: 16
Reenqueueing errored packet 77628 at time 1910
Additional hops: 2912
Set signal latency stall time: 24
Additional hops: 2918
Set signal latency stall time: 12
Additional hops: 2923
Set signal latency stall time: 10
Reenqueueing errored packet 57782 at time 1913
Reenqueueing errored packet 59362 at time 1914
Additional hops: 2931
Set signal latency stall time: 16
Additional hops: 2937
Set signal latency stall time: 12
Reenqueueing errored packet 68153 at time 1922
Reenqueueing errored packet 64941 at time 1923
Additional hops: 2943
Set signal latency stall time: 12
Reenqueueing errored packet 65885 at time 1926
Reenqueueing errored packet 53155 at time 1931
Reenqueueing errored packet 54003 at time 1932
Reenqueueing errored packet 50042 at time 1935
Additional hops: 2946
Set signal latency stall time: 6
Reenqueueing errored packet 68615 at time 1938
Additional hops: 2954
Set signal latency stall time: 16
Reenqueueing errored packet 63720 at time 1942
Additional hops: 2959
Set signal latency stall time: 10
Additional hops: 2967
Set signal latency stall time: 16
Reenqueueing errored packet 74549 at time 1954
Reenqueueing errored packet 58499 at time 1956
Additional hops: 2971
Set signal latency stall time: 8
Additional hops: 2978
Set signal latency stall time: 14
Reenqueueing errored packet 70568 at time 1965
Reenqueueing errored packet 65223 at time 1966
Additional hops: 2982
Set signal latency stall time: 8
Additional hops: 2989
Set signal latency stall time: 14
Additional hops: 2999
Set signal latency stall time: 20
Additional hops: 3011
Set signal latency stall time: 24
Reenqueueing errored packet 80753 at time 1975
Reenqueueing errored packet 74840 at time 1976
Reenqueueing errored packet 59210 at time 1982
Additional hops: 3014
Set signal latency stall time: 6
Additional hops: 3019
Set signal latency stall time: 10
Additional hops: 3026
Set signal latency stall time: 14
Reenqueueing errored packet 65662 at time 1989
Additional hops: 3032
Set signal latency stall time: 12
Reenqueueing errored packet 49011 at time 1990
Additional hops: 3042
Set signal latency stall time: 20
Additional hops: 3053
Set signal latency stall time: 22
Additional hops: 3058
Set signal latency stall time: 10
Reenqueueing errored packet 67326 at time 1996
Additional hops: 3063
Set signal latency stall time: 10
Reenqueueing errored packet 46112 at time 1997
Reenqueueing errored packet 56927 at time 2001
Reenqueueing errored packet 64894 at time 2002
Additional hops: 3074
Set signal latency stall time: 22
Additional hops: 3085
Set signal latency stall time: 22
Reenqueueing errored packet 77424 at time 2006
Additional hops: 3090
Set signal latency stall time: 10
Reenqueueing errored packet 76295 at time 2007
Additional hops: 3095
Set signal latency stall time: 10
Reenqueueing errored packet 45693 at time 2012
Additional hops: 3104
Set signal latency stall time: 18
Additional hops: 3110
Set signal latency stall time: 12
Reenqueueing errored packet 62371 at time 2014
Additional hops: 3118
Set signal latency stall time: 16
Additional hops: 3122
Set signal latency stall time: 8
Reenqueueing errored packet 64190 at time 2017
Additional hops: 3135
Set signal latency stall time: 26
Reenqueueing errored packet 69879 at time 2019
Additional hops: 3145
Set signal latency stall time: 20
Additional hops: 3153
Set signal latency stall time: 16
Additional hops: 3160
Set signal latency stall time: 14
Reenqueueing errored packet 67167 at time 2025
Reenqueueing errored packet 75119 at time 2026
Reenqueueing errored packet 49258 at time 2026
Reenqueueing errored packet 48582 at time 2027
Reenqueueing errored packet 70418 at time 2031
Reenqueueing errored packet 49289 at time 2032
Additional hops: 3168
Set signal latency stall time: 16
Additional hops: 3171
Set signal latency stall time: 6
Reenqueueing errored packet 67514 at time 2036
Reenqueueing errored packet 67292 at time 2039
Additional hops: 3177
Set signal latency stall time: 12
Reenqueueing errored packet 70623 at time 2040
Reenqueueing errored packet 84126 at time 2042
Reenqueueing errored packet 49247 at time 2044
Additional hops: 3188
Set signal latency stall time: 22
Reenqueueing errored packet 57225 at time 2049
Additional hops: 3191
Set signal latency stall time: 6
Reenqueueing errored packet 68459 at time 2052
Additional hops: 3197
Set signal latency stall time: 12
Additional hops: 3205
Set signal latency stall time: 16
Reenqueueing errored packet 84742 at time 2058
Additional hops: 3212
Set signal latency stall time: 14
Additional hops: 3218
Set signal latency stall time: 12
Additional hops: 3223
Set signal latency stall time: 10
Additional hops: 3228
Set signal latency stall time: 10
Reenqueueing errored packet 65161 at time 2065
Reenqueueing errored packet 72989 at time 2069
Reenqueueing errored packet 50774 at time 2069
Additional hops: 3235
Set signal latency stall time: 14
Reenqueueing errored packet 75260 at time 2074
Reenqueueing errored packet 73378 at time 2075
Reenqueueing errored packet 83853 at time 2075
Reenqueueing errored packet 77684 at time 2075
Additional hops: 3242
Set signal latency stall time: 14
Additional hops: 3246
Set signal latency stall time: 8
Reenqueueing errored packet 61536 at time 2087
Reenqueueing errored packet 85864 at time 2090
Additional hops: 3255
Set signal latency stall time: 18
Reenqueueing errored packet 54125 at time 2094
Additional hops: 3263
Set signal latency stall time: 16
Additional hops: 3266
Set signal latency stall time: 6
Additional hops: 3275
Set signal latency stall time: 18
Reenqueueing errored packet 86161 at time 2107
Additional hops: 3284
Set signal latency stall time: 18
Additional hops: 3290
Set signal latency stall time: 12
Additional hops: 3298
Set signal latency stall time: 16
Additional hops: 3303
Set signal latency stall time: 10
Reenqueueing errored packet 73761 at time 2112
Reenqueueing errored packet 61790 at time 2113
Reenqueueing errored packet 74327 at time 2119
Reenqueueing errored packet 62213 at time 2121
Additional hops: 3310
Set signal latency stall time: 14
Reenqueueing errored packet 64255 at time 2122
Additional hops: 3318
Set signal latency stall time: 16
Reenqueueing errored packet 73539 at time 2126
Reenqueueing errored packet 60124 at time 2127
Reenqueueing errored packet 71796 at time 2136
Reenqueueing errored packet 72192 at time 2141
Additional hops: 3329
Set signal latency stall time: 22
Additional hops: 3337
Set signal latency stall time: 16
Additional hops: 3343
Set signal latency stall time: 12
Additional hops: 3351
Set signal latency stall time: 16
Additional hops: 3361
Set signal latency stall time: 20
Additional hops: 3368
Set signal latency stall time: 14
Additional hops: 3375
Set signal latency stall time: 14
Reenqueueing errored packet 79719 at time 2167
Reenqueueing errored packet 74886 at time 2168
Reenqueueing errored packet 65552 at time 2173
Reenqueueing errored packet 64668 at time 2174
Reenqueueing errored packet 66645 at time 2174
Additional hops: 3383
Set signal latency stall time: 16
Additional hops: 3390
Set signal latency stall time: 14
Reenqueueing errored packet 62764 at time 2178
Additional hops: 3393
Set signal latency stall time: 6
Additional hops: 3397
Set signal latency stall time: 8
Additional hops: 3407
Set signal latency stall time: 20
Additional hops: 3417
Set signal latency stall time: 20
Reenqueueing errored packet 90045 at time 2185
Reenqueueing errored packet 88804 at time 2187
Additional hops: 3425
Set signal latency stall time: 16
Additional hops: 3434
Set signal latency stall time: 18
Reenqueueing errored packet 77533 at time 2191
Additional hops: 3441
Set signal latency stall time: 14
Reenqueueing errored packet 81900 at time 2192
Additional hops: 3452
Set signal latency stall time: 22
Additional hops: 3458
Set signal latency stall time: 12
Additional hops: 3464
Set signal latency stall time: 12
Reenqueueing errored packet 68400 at time 2200
Reenqueueing errored packet 56367 at time 2202
Reenqueueing errored packet 59319 at time 2204
Reenqueueing errored packet 76424 at time 2205
Reenqueueing errored packet 67060 at time 2206
Reenqueueing errored packet 49641 at time 2207
Reenqueueing errored packet 74132 at time 2210
Additional hops: 3478
Set signal latency stall time: 28
Additional hops: 3486
Set signal latency stall time: 16
Reenqueueing errored packet 54091 at time 2215
Additional hops: 3493
Set signal latency stall time: 14
Additional hops: 3499
Set signal latency stall time: 12
Additional hops: 3507
Set signal latency stall time: 16
Additional hops: 3513
Set signal latency stall time: 12
Reenqueueing errored packet 56576 at time 2229
Reenqueueing errored packet 79100 at time 2234
Additional hops: 3521
Set signal latency stall time: 16
Additional hops: 3529
Set signal latency stall time: 16
Reenqueueing errored packet 90737 at time 2238
Reenqueueing errored packet 78420 at time 2241
Reenqueueing errored packet 54789 at time 2241
Reenqueueing errored packet 52041 at time 2245
Reenqueueing errored packet 75179 at time 2251
Reenqueueing errored packet 56711 at time 2254
Additional hops: 3539
Set signal latency stall time: 20
Additional hops: 3546
Set signal latency stall time: 14
Additional hops: 3548
Set signal latency stall time: 4
Additional hops: 3553
Set signal latency stall time: 10
Additional hops: 3564
Set signal latency stall time: 22
Reenqueueing errored packet 92805 at time 2267
Reenqueueing errored packet 92864 at time 2274
Reenqueueing errored packet 78750 at time 2275
Additional hops: 3570
Set signal latency stall time: 12
Additional hops: 3574
Set signal latency stall time: 8
Additional hops: 3585
Set signal latency stall time: 22
Additional hops: 3586
Set signal latency stall time: 2
Reenqueueing errored packet 61498 at time 2281
Reenqueueing errored packet 94479 at time 2282
Reenqueueing errored packet 83296 at time 2284
Reenqueueing errored packet 69970 at time 2286
Reenqueueing errored packet 70314 at time 2288
Additional hops: 3594
Set signal latency stall time: 16
Additional hops: 3603
Set signal latency stall time: 18
Reenqueueing errored packet 62027 at time 2302
Additional hops: 3611
Set signal latency stall time: 16
Reenqueueing errored packet 79911 at time 2309
Reenqueueing errored packet 61610 at time 2314
Additional hops: 3613
Set signal latency stall time: 4
Additional hops: 3621
Set signal latency stall time: 16
Additional hops: 3630
Set signal latency stall time: 18
Reenqueueing errored packet 96004 at time 2323
Additional hops: 3636
Set signal latency stall time: 12
Reenqueueing errored packet 71617 at time 2324
Additional hops: 3646
Set signal latency stall time: 20
Additional hops: 3649
Set signal latency stall time: 6
Additional hops: 3656
Set signal latency stall time: 14
Reenqueueing errored packet 95991 at time 2332
Additional hops: 3659
Set signal latency stall time: 6
Additional hops: 3665
Set signal latency stall time: 12
Reenqueueing errored packet 86594 at time 2336
Reenqueueing errored packet 82754 at time 2336
Reenqueueing errored packet 95096 at time 2339
Reenqueueing errored packet 82578 at time 2340
Reenqueueing errored packet 69187 at time 2341
Additional hops: 3669
Set signal latency stall time: 8
Reenqueueing errored packet 69017 at time 2346
Reenqueueing errored packet 58819 at time 2346
Reenqueueing errored packet 96169 at time 2353
Additional hops: 3677
Set signal latency stall time: 16
Additional hops: 3688
Set signal latency stall time: 22
Additional hops: 3698
Set signal latency stall time: 20
Additional hops: 3705
Set signal latency stall time: 14
Additional hops: 3711
Set signal latency stall time: 12
Reenqueueing errored packet 81151 at time 2372
Additional hops: 3721
Set signal latency stall time: 20
Additional hops: 3725
Set signal latency stall time: 8
Reenqueueing errored packet 70209 at time 2378
Reenqueueing errored packet 63940 at time 2378
Additional hops: 3732
Set signal latency stall time: 14
Reenqueueing errored packet 61509 at time 2379
Reenqueueing errored packet 84807 at time 2381
Additional hops: 3738
Set signal latency stall time: 12
Reenqueueing errored packet 85277 at time 2385
Reenqueueing errored packet 85128 at time 2393
Reenqueueing errored packet 85436 at time 2394
Additional hops: 3740
Set signal latency stall time: 4
Reenqueueing errored packet 59417 at time 2395
Additional hops: 3749
Set signal latency stall time: 18
Reenqueueing errored packet 98566 at time 2399
Additional hops: 3755
Set signal latency stall time: 12
Additional hops: 3759
Set signal latency stall time: 8
Additional hops: 3764
Set signal latency stall time: 10
Additional hops: 3769
Set signal latency stall time: 10
Additional hops: 3773
Set signal latency stall time: 8
Reenqueueing errored packet 73126 at time 2411
Reenqueueing errored packet 88261 at time 2412
Additional hops: 3780
Set signal latency stall time: 14
Reenqueueing errored packet 98992 at time 2414
Reenqueueing errored packet 89334 at time 2415
Additional hops: 3787
Set signal latency stall time: 14
Reenqueueing errored packet 72866 at time 2416
Reenqueueing errored packet 92347 at time 2417
Additional hops: 3792
Set signal latency stall time: 10
Additional hops: 3800
Set signal latency stall time: 16
Reenqueueing errored packet 84005 at time 2428
Additional hops: 3807
Set signal latency stall time: 14
Additional hops: 3825
Set signal latency stall time: 36
Reenqueueing errored packet 93584 at time 2430
Reenqueueing errored packet 84229 at time 2430
Additional hops: 3830
Set signal latency stall time: 10
Reenqueueing errored packet 81587 at time 2442
Additional hops: 3834
Set signal latency stall time: 8
Reenqueueing errored packet 71574 at time 2443
Additional hops: 3845
Set signal latency stall time: 22
Additional hops: 3850
Set signal latency stall time: 10
Reenqueueing errored packet 79428 at time 2448
Reenqueueing errored packet 100720 at time 2451
Reenqueueing errored packet 75369 at time 2456
Additional hops: 3861
Set signal latency stall time: 22
Additional hops: 3870
Set signal latency stall time: 18
Reenqueueing errored packet 33299 at time 2466
Reenqueueing errored packet 65203 at time 2467
Additional hops: 3878
Set signal latency stall time: 16
Additional hops: 3888
Set signal latency stall time: 20
Additional hops: 3891
Set signal latency stall time: 6
Reenqueueing errored packet 60486 at time 2479
Reenqueueing errored packet 102302 at time 2480
Additional hops: 3896
Set signal latency stall time: 10
Reenqueueing errored packet 76973 at time 2482
Additional hops: 3903
Set signal latency stall time: 14
Reenqueueing errored packet 73311 at time 2484
Additional hops: 3909
Set signal latency stall time: 12
Reenqueueing errored packet 58236 at time 2488
Reenqueueing errored packet 90440 at time 2491
Additional hops: 3917
Set signal latency stall time: 16
Additional hops: 3924
Set signal latency stall time: 14
Additional hops: 3929
Set signal latency stall time: 10
Additional hops: 3932
Set signal latency stall time: 6
Additional hops: 3936
Set signal latency stall time: 8
Reenqueueing errored packet 84623 at time 2498
Reenqueueing errored packet 75803 at time 2499
Reenqueueing errored packet 102808 at time 2502
Reenqueueing errored packet 91662 at time 2505
Reenqueueing errored packet 101423 at time 2505
Reenqueueing errored packet 85133 at time 2506
Reenqueueing errored packet 79417 at time 2508
Additional hops: 3954
Set signal latency stall time: 36
Additional hops: 3966
Set signal latency stall time: 24
Additional hops: 3971
Set signal latency stall time: 10
Additional hops: 3980
Set signal latency stall time: 18
Additional hops: 3992
Set signal latency stall time: 24
Additional hops: 3997
Set signal latency stall time: 10
Reenqueueing errored packet 97185 at time 2526
Additional hops: 4005
Set signal latency stall time: 16
Reenqueueing errored packet 76133 at time 2532
Additional hops: 4013
Set signal latency stall time: 16
Additional hops: 4019
Set signal latency stall time: 12
Reenqueueing errored packet 85304 at time 2538
Reenqueueing errored packet 63895 at time 2539
Additional hops: 4027
Set signal latency stall time: 16
Additional hops: 4038
Set signal latency stall time: 22
Additional hops: 4042
Set signal latency stall time: 8
Reenqueueing errored packet 90282 at time 2544
Reenqueueing errored packet 62623 at time 2544
Reenqueueing errored packet 73761 at time 2546
Reenqueueing errored packet 90750 at time 2548
Additional hops: 4048
Set signal latency stall time: 12
Reenqueueing errored packet 64028 at time 2551
Reenqueueing errored packet 105033 at time 2552
Additional hops: 4060
Set signal latency stall time: 24
Reenqueueing errored packet 76541 at time 2557
Reenqueueing errored packet 77159 at time 2562
Reenqueueing errored packet 59224 at time 2563
Additional hops: 4067
Set signal latency stall time: 14
Additional hops: 4073
Set signal latency stall time: 12
Additional hops: 4082
Set signal latency stall time: 18
Reenqueueing errored packet 71931 at time 2578
Reenqueueing errored packet 75551 at time 2578
Reenqueueing errored packet 63503 at time 2579
Additional hops: 4094
Set signal latency stall time: 24
Additional hops: 4104
Set signal latency stall time: 20
Additional hops: 4114
Set signal latency stall time: 20
Reenqueueing errored packet 69227 at time 2590
Additional hops: 4120
Set signal latency stall time: 12
Additional hops: 4128
Set signal latency stall time: 16
Additional hops: 4138
Set signal latency stall time: 20
Additional hops: 4145
Set signal latency stall time: 14
Reenqueueing errored packet 89796 at time 2604
Additional hops: 4148
Set signal latency stall time: 6
Reenqueueing errored packet 74582 at time 2607
Reenqueueing errored packet 65325 at time 2610
Reenqueueing errored packet 60383 at time 2610
Additional hops: 4150
Set signal latency stall time: 4
Reenqueueing errored packet 90503 at time 2611
Reenqueueing errored packet 93316 at time 2612
Reenqueueing errored packet 87833 at time 2613
Reenqueueing errored packet 108153 at time 2615
Reenqueueing errored packet 65888 at time 2616
Additional hops: 4155
Set signal latency stall time: 10
Additional hops: 4162
Set signal latency stall time: 14
Additional hops: 4165
Set signal latency stall time: 6
Additional hops: 4167
Set signal latency stall time: 4
Additional hops: 4176
Set signal latency stall time: 18
Additional hops: 4184
Set signal latency stall time: 16
Additional hops: 4193
Set signal latency stall time: 18
Additional hops: 4199
Set signal latency stall time: 12
Reenqueueing errored packet 97701 at time 2627
Reenqueueing errored packet 97353 at time 2627
Reenqueueing errored packet 105308 at time 2629
Additional hops: 4207
Set signal latency stall time: 16
Additional hops: 4216
Set signal latency stall time: 18
Additional hops: 4223
Set signal latency stall time: 14
Additional hops: 4229
Set signal latency stall time: 12
Reenqueueing errored packet 95822 at time 2633
Additional hops: 4232
Set signal latency stall time: 6
Additional hops: 4234
Set signal latency stall time: 4
Additional hops: 4241
Set signal latency stall time: 14
Reenqueueing errored packet 96184 at time 2639
Reenqueueing errored packet 79388 at time 2639
Reenqueueing errored packet 101932 at time 2641
Reenqueueing errored packet 89406 at time 2641
Reenqueueing errored packet 104108 at time 2642
Reenqueueing errored packet 94139 at time 2643
Additional hops: 4246
Set signal latency stall time: 10
Reenqueueing errored packet 82373 at time 2644
Reenqueueing errored packet 91130 at time 2645
Reenqueueing errored packet 88367 at time 2646
Reenqueueing errored packet 91958 at time 2648
Additional hops: 4252
Set signal latency stall time: 12
Additional hops: 4255
Set signal latency stall time: 6
Additional hops: 4261
Set signal latency stall time: 12
Reenqueueing errored packet 81177 at time 2653
Reenqueueing errored packet 79080 at time 2654
Reenqueueing errored packet 108859 at time 2656
Additional hops: 4266
Set signal latency stall time: 10
Reenqueueing errored packet 90804 at time 2662
Reenqueueing errored packet 92565 at time 2663
Additional hops: 4272
Set signal latency stall time: 12
Additional hops: 4280
Set signal latency stall time: 16
Reenqueueing errored packet 97222 at time 2669
Additional hops: 4282
Set signal latency stall time: 4
Additional hops: 4287
Set signal latency stall time: 10
Additional hops: 4295
Set signal latency stall time: 16
Reenqueueing errored packet 110603 at time 2676
Reenqueueing errored packet 78247 at time 2679
Additional hops: 4298
Set signal latency stall time: 6
Reenqueueing errored packet 102320 at time 2682
Reenqueueing errored packet 67294 at time 2685
Additional hops: 4306
Set signal latency stall time: 16
Reenqueueing errored packet 99381 at time 2688
Reenqueueing errored packet 66383 at time 2690
Additional hops: 4318
Set signal latency stall time: 24
Additional hops: 4326
Set signal latency stall time: 16
Additional hops: 4330
Set signal latency stall time: 8
Reenqueueing errored packet 96081 at time 2703
Additional hops: 4333
Set signal latency stall time: 6
Reenqueueing errored packet 105700 at time 2706
Additional hops: 4345
Set signal latency stall time: 24
Reenqueueing errored packet 111678 at time 2710
Additional hops: 4350
Set signal latency stall time: 10
Additional hops: 4358
Set signal latency stall time: 16
Reenqueueing errored packet 91867 at time 2714
Reenqueueing errored packet 68104 at time 2721
Additional hops: 4365
Set signal latency stall time: 14
Additional hops: 4370
Set signal latency stall time: 10
Reenqueueing errored packet 96753 at time 2724
Additional hops: 4377
Set signal latency stall time: 14
Additional hops: 4380
Set signal latency stall time: 6
Reenqueueing errored packet 93960 at time 2730
Additional hops: 4388
Set signal latency stall time: 16
Reenqueueing errored packet 80507 at time 2733
Additional hops: 4390
Set signal latency stall time: 4
Additional hops: 4396
Set signal latency stall time: 12
Reenqueueing errored packet 67628 at time 2734
Additional hops: 4403
Set signal latency stall time: 14
Reenqueueing errored packet 112519 at time 2736
Reenqueueing errored packet 82979 at time 2737
Reenqueueing errored packet 113250 at time 2738
Additional hops: 4414
Set signal latency stall time: 22
Additional hops: 4421
Set signal latency stall time: 14
Additional hops: 4431
Set signal latency stall time: 20
Additional hops: 4437
Set signal latency stall time: 12
Additional hops: 4445
Set signal latency stall time: 16
Reenqueueing errored packet 78756 at time 2744
Reenqueueing errored packet 101514 at time 2746
Reenqueueing errored packet 79491 at time 2748
Reenqueueing errored packet 86653 at time 2750
Reenqueueing errored packet 102052 at time 2755
Reenqueueing errored packet 94362 at time 2755
Additional hops: 4450
Set signal latency stall time: 10
Reenqueueing errored packet 73262 at time 2760
Reenqueueing errored packet 66332 at time 2761
Reenqueueing errored packet 86885 at time 2763
Reenqueueing errored packet 97915 at time 2769
Additional hops: 4459
Set signal latency stall time: 18
Additional hops: 4467
Set signal latency stall time: 16
Additional hops: 4476
Set signal latency stall time: 18
Reenqueueing errored packet 97221 at time 2789
Reenqueueing errored packet 81332 at time 2790
Reenqueueing errored packet 78191 at time 2795
Additional hops: 4485
Set signal latency stall time: 18
Additional hops: 4498
Set signal latency stall time: 26
Additional hops: 4505
Set signal latency stall time: 14
Additional hops: 4507
Set signal latency stall time: 4
Additional hops: 4513
Set signal latency stall time: 12
Reenqueueing errored packet 116265 at time 2810
Additional hops: 4522
Set signal latency stall time: 18
Additional hops: 4528
Set signal latency stall time: 12
Additional hops: 4533
Set signal latency stall time: 10
Reenqueueing errored packet 86561 at time 2815
Reenqueueing errored packet 100660 at time 2820
Additional hops: 4541
Set signal latency stall time: 16
Reenqueueing errored packet 83723 at time 2821
Reenqueueing errored packet 85397 at time 2824
Reenqueueing errored packet 83977 at time 2824
Additional hops: 4554
Set signal latency stall time: 26
Reenqueueing errored packet 71171 at time 2828
Reenqueueing errored packet 71507 at time 2829
Additional hops: 4564
Set signal latency stall time: 20
Additional hops: 4569
Set signal latency stall time: 10
Additional hops: 4576
Set signal latency stall time: 14
Additional hops: 4586
Set signal latency stall time: 20
Reenqueueing errored packet 97401 at time 2837
Additional hops: 4597
Set signal latency stall time: 22
Reenqueueing errored packet 116269 at time 2843
Additional hops: 4604
Set signal latency stall time: 14
Additional hops: 4611
Set signal latency stall time: 14
Reenqueueing errored packet 83011 at time 2848
Additional hops: 4621
Set signal latency stall time: 20
Additional hops: 4628
Set signal latency stall time: 14
Reenqueueing errored packet 84470 at time 2851
Reenqueueing errored packet 73931 at time 2854
Reenqueueing errored packet 72000 at time 2857
Reenqueueing errored packet 95270 at time 2859
Reenqueueing errored packet 83851 at time 2860
Additional hops: 4637
Set signal latency stall time: 18
Reenqueueing errored packet 98717 at time 2862
Additional hops: 4646
Set signal latency stall time: 18
Additional hops: 4651
Set signal latency stall time: 10
Additional hops: 4657
Set signal latency stall time: 12
Reenqueueing errored packet 101662 at time 2865
Reenqueueing errored packet 69418 at time 2870
Additional hops: 4661
Set signal latency stall time: 8
Reenqueueing errored packet 105779 at time 2874
Reenqueueing errored packet 85988 at time 2877
Reenqueueing errored packet 79382 at time 2879
Reenqueueing errored packet 107298 at time 2880
Additional hops: 4670
Set signal latency stall time: 18
Reenqueueing errored packet 89741 at time 2882
Additional hops: 4674
Set signal latency stall time: 8
Additional hops: 4684
Set signal latency stall time: 20
Reenqueueing errored packet 78684 at time 2899
Additional hops: 4689
Set signal latency stall time: 10
Reenqueueing errored packet 107434 at time 2904
Additional hops: 4693
Set signal latency stall time: 8
Additional hops: 4704
Set signal latency stall time: 22
Additional hops: 4709
Set signal latency stall time: 10
Additional hops: 4716
Set signal latency stall time: 14
Reenqueueing errored packet 118539 at time 2913
Reenqueueing errored packet 100424 at time 2914
Reenqueueing errored packet 83218 at time 2918
Reenqueueing errored packet 88509 at time 2919
Additional hops: 4719
Set signal latency stall time: 6
Reenqueueing errored packet 86912 at time 2923
Reenqueueing errored packet 112694 at time 2927
Reenqueueing errored packet 72903 at time 2929
Additional hops: 4727
Set signal latency stall time: 16
Additional hops: 4734
Set signal latency stall time: 14
Additional hops: 4744
Set signal latency stall time: 20
Additional hops: 4749
Set signal latency stall time: 10
Additional hops: 4759
Set signal latency stall time: 20
Reenqueueing errored packet 117497 at time 2950
Reenqueueing errored packet 89337 at time 2952
Reenqueueing errored packet 86216 at time 2953
Reenqueueing errored packet 91454 at time 2960
Additional hops: 4764
Set signal latency stall time: 10
Reenqueueing errored packet 80791 at time 2968
Additional hops: 4774
Set signal latency stall time: 20
Additional hops: 4781
Set signal latency stall time: 14
Additional hops: 4786
Set signal latency stall time: 10
Additional hops: 4791
Set signal latency stall time: 10
Reenqueueing errored packet 112832 at time 2975
Additional hops: 4799
Set signal latency stall time: 16
Reenqueueing errored packet 91033 at time 2981
Reenqueueing errored packet 115456 at time 2982
Additional hops: 4810
Set signal latency stall time: 22
Additional hops: 4815
Set signal latency stall time: 10
Reenqueueing errored packet 86215 at time 2985
Additional hops: 4822
Set signal latency stall time: 14
Reenqueueing errored packet 74633 at time 2990
Reenqueueing errored packet 93751 at time 2993
Reenqueueing errored packet 75068 at time 2994
Additional hops: 4830
Set signal latency stall time: 16
Reenqueueing errored packet 101921 at time 3004
Additional hops: 4836
Set signal latency stall time: 12
Reenqueueing errored packet 84169 at time 3005
Additional hops: 4839
Set signal latency stall time: 6
Additional hops: 4847
Set signal latency stall time: 16
Reenqueueing errored packet 124518 at time 3013
Additional hops: 4848
Set signal latency stall time: 2
Additional hops: 4853
Set signal latency stall time: 10
Reenqueueing errored packet 125073 at time 3016
Reenqueueing errored packet 91136 at time 3017
Reenqueueing errored packet 86552 at time 3020
Reenqueueing errored packet 92796 at time 3025
Additional hops: 4863
Set signal latency stall time: 20
Reenqueueing errored packet 87004 at time 3029
Additional hops: 4875
Set signal latency stall time: 24
Additional hops: 4880
Set signal latency stall time: 10
Reenqueueing errored packet 118871 at time 3045
Reenqueueing errored packet 92807 at time 3046
Additional hops: 4886
Set signal latency stall time: 12
Additional hops: 4890
Set signal latency stall time: 8
Additional hops: 4893
Set signal latency stall time: 6
Additional hops: 4899
Set signal latency stall time: 12
Additional hops: 4908
Set signal latency stall time: 18
Reenqueueing errored packet 72814 at time 3055
Additional hops: 4916
Set signal latency stall time: 16
Additional hops: 4925
Set signal latency stall time: 18
Reenqueueing errored packet 117006 at time 3058
Reenqueueing errored packet 126092 at time 3058
Reenqueueing errored packet 103871 at time 3061
Additional hops: 4933
Set signal latency stall time: 16
Additional hops: 4942
Set signal latency stall time: 18
Reenqueueing errored packet 108394 at time 3064
Reenqueueing errored packet 89572 at time 3071
Additional hops: 4947
Set signal latency stall time: 10
Reenqueueing errored packet 102816 at time 3073
Additional hops: 4951
Set signal latency stall time: 8
Reenqueueing errored packet 93449 at time 3076
Additional hops: 4960
Set signal latency stall time: 18
Reenqueueing errored packet 74921 at time 3078
Additional hops: 4964
Set signal latency stall time: 8
Reenqueueing errored packet 73066 at time 3081
Additional hops: 4969
Set signal latency stall time: 10
Reenqueueing errored packet 126963 at time 3082
Additional hops: 4977
Set signal latency stall time: 16
Reenqueueing errored packet 106018 at time 3084
Reenqueueing errored packet 117480 at time 3087
Additional hops: 4981
Set signal latency stall time: 8
Reenqueueing errored packet 122023 at time 3092
Additional hops: 4990
Set signal latency stall time: 18
Additional hops: 5001
Set signal latency stall time: 22
Reenqueueing errored packet 75569 at time 3096
Additional hops: 5012
Set signal latency stall time: 22
Reenqueueing errored packet 118431 at time 3097
Additional hops: 5020
Set signal latency stall time: 16
Reenqueueing errored packet 101907 at time 3100
Additional hops: 5027
Set signal latency stall time: 14
Additional hops: 5038
Set signal latency stall time: 22
Additional hops: 5043
Set signal latency stall time: 10
Reenqueueing errored packet 77524 at time 3111
Additional hops: 5047
Set signal latency stall time: 8
Additional hops: 5055
Set signal latency stall time: 16
Reenqueueing errored packet 83355 at time 3114
Additional hops: 5060
Set signal latency stall time: 10
Reenqueueing errored packet 118922 at time 3115
Reenqueueing errored packet 109584 at time 3117
Reenqueueing errored packet 83030 at time 3117
Additional hops: 5064
Set signal latency stall time: 8
Reenqueueing errored packet 77877 at time 3119
Reenqueueing errored packet 121714 at time 3121
Additional hops: 5071
Set signal latency stall time: 14
Additional hops: 5081
Set signal latency stall time: 20
Reenqueueing errored packet 96350 at time 3124
Reenqueueing errored packet 126931 at time 3125
Reenqueueing errored packet 128933 at time 3126
Reenqueueing errored packet 107508 at time 3129
Additional hops: 5091
Set signal latency stall time: 20
Reenqueueing errored packet 128551 at time 3137
Additional hops: 5098
Set signal latency stall time: 14
Reenqueueing errored packet 78034 at time 3143
Additional hops: 5105
Set signal latency stall time: 14
Additional hops: 5109
Set signal latency stall time: 8
Additional hops: 5117
Set signal latency stall time: 16
Additional hops: 5123
Set signal latency stall time: 12
Additional hops: 5126
Set signal latency stall time: 6
Additional hops: 5132
Set signal latency stall time: 12
Additional hops: 5134
Set signal latency stall time: 4
Reenqueueing errored packet 112679 at time 3157
Reenqueueing errored packet 92506 at time 3157
Additional hops: 5146
Set signal latency stall time: 24
Additional hops: 5150
Set signal latency stall time: 8
Reenqueueing errored packet 130724 at time 3159
Reenqueueing errored packet 130614 at time 3159
Reenqueueing errored packet 119488 at time 3159
Additional hops: 5154
Set signal latency stall time: 8
Additional hops: 5168
Set signal latency stall time: 28
Reenqueueing errored packet 93904 at time 3163
Reenqueueing errored packet 108791 at time 3164
Additional hops: 5175
Set signal latency stall time: 14
Reenqueueing errored packet 95227 at time 3166
Reenqueueing errored packet 113273 at time 3166
Reenqueueing errored packet 105399 at time 3168
Reenqueueing errored packet 109404 at time 3169
Additional hops: 5181
Set signal latency stall time: 12
Reenqueueing errored packet 100688 at time 3180
Reenqueueing errored packet 78907 at time 3182
Additional hops: 5192
Set signal latency stall time: 22
Reenqueueing errored packet 100306 at time 3189
Additional hops: 5195
Set signal latency stall time: 6
Reenqueueing errored packet 80247 at time 3190
Additional hops: 5202
Set signal latency stall time: 14
Reenqueueing errored packet 110853 at time 3196
Additional hops: 5209
Set signal latency stall time: 14
Additional hops: 5217
Set signal latency stall time: 16
Additional hops: 5223
Set signal latency stall time: 12
Additional hops: 5225
Set signal latency stall time: 4
Reenqueueing errored packet 96733 at time 3209
Additional hops: 5230
Set signal latency stall time: 10
Reenqueueing errored packet 95399 at time 3210
Reenqueueing errored packet 122112 at time 3213
Additional hops: 5243
Set signal latency stall time: 26
Additional hops: 5254
Set signal latency stall time: 22
Additional hops: 5262
Set signal latency stall time: 16
Reenqueueing errored packet 88130 at time 3217
Reenqueueing errored packet 106962 at time 3220
Reenqueueing errored packet 107312 at time 3221
Additional hops: 5268
Set signal latency stall time: 12
[...]
Additional hops: 14632
Set signal latency stall time: 18
Additional hops: 14642
Set signal latency stall time: 20
Additional hops: 14645
Set signal latency stall time: 6
Reenqueueing errored packet 355013 at time 9133
Additional hops: 14654
Set signal latency stall time: 18
Additional hops: 14659
Set signal latency stall time: 10
Additional hops: 14666
Set signal latency stall time: 14
Reenqueueing errored packet 323533 at time 9144
Additional hops: 14675
Set signal latency stall time: 18
Additional hops: 14687
Set signal latency stall time: 24
Reenqueueing errored packet 315541 at time 9147
Reenqueueing errored packet 337524 at time 9148
Additional hops: 14693
Set signal latency stall time: 12
Additional hops: 14699
Set signal latency stall time: 12
Reenqueueing errored packet 331768 at time 9154
Additional hops: 14704
Set signal latency stall time: 10
Reenqueueing errored packet 298697 at time 9155
Additional hops: 14716
Set signal latency stall time: 24
Reenqueueing errored packet 355534 at time 9163
Reenqueueing errored packet 332339 at time 9164
Reenqueueing errored packet 300579 at time 9165
Additional hops: 14722
Set signal latency stall time: 12
Additional hops: 14734
Set signal latency stall time: 24
Reenqueueing errored packet 213783 at time 9171
Additional hops: 14744
Set signal latency stall time: 20
Reenqueueing errored packet 331641 at time 9178
Additional hops: 14753
Set signal latency stall time: 18
Additional hops: 14760
Set signal latency stall time: 14
Additional hops: 14769
Set signal latency stall time: 18
Reenqueueing errored packet 337598 at time 9199
Additional hops: 14776
Set signal latency stall time: 14
Additional hops: 14783
Set signal latency stall time: 14
Reenqueueing errored packet 332036 at time 9218
Additional hops: 14786
Set signal latency stall time: 6
Reenqueueing errored packet 356802 at time 9227
Reenqueueing errored packet 333021 at time 9227
Additional hops: 14797
Set signal latency stall time: 22
Additional hops: 14804
Set signal latency stall time: 14
Additional hops: 14810
Set signal latency stall time: 12
Additional hops: 14820
Set signal latency stall time: 20
Additional hops: 14826
Set signal latency stall time: 12
Additional hops: 14833
Set signal latency stall time: 14
Reenqueueing errored packet 340298 at time 9250
Reenqueueing errored packet 255506 at time 9255
Additional hops: 14842
Set signal latency stall time: 18
Reenqueueing errored packet 222172 at time 9257
Additional hops: 14850
Set signal latency stall time: 16
Additional hops: 14855
Set signal latency stall time: 10
Additional hops: 14857
Set signal latency stall time: 4
Additional hops: 14863
Set signal latency stall time: 12
Reenqueueing errored packet 233146 at time 9274
Reenqueueing errored packet 303717 at time 9274
Reenqueueing errored packet 328120 at time 9276
Additional hops: 14872
Set signal latency stall time: 18
Additional hops: 14875
Set signal latency stall time: 6
Reenqueueing errored packet 345491 at time 9285
Reenqueueing errored packet 343762 at time 9287
Additional hops: 14880
Set signal latency stall time: 10
Additional hops: 14886
Set signal latency stall time: 12
Reenqueueing errored packet 346196 at time 9298
Additional hops: 14895
Set signal latency stall time: 18
Reenqueueing errored packet 233834 at time 9310
Additional hops: 14907
Set signal latency stall time: 24
Additional hops: 14913
Set signal latency stall time: 12
Reenqueueing errored packet 234770 at time 9325
Additional hops: 14919
Set signal latency stall time: 12
Additional hops: 14929
Set signal latency stall time: 20
Additional hops: 14936
Set signal latency stall time: 14
Additional hops: 14941
Set signal latency stall time: 10
Reenqueueing errored packet 342375 at time 9334
Additional hops: 14950
Set signal latency stall time: 18
Reenqueueing errored packet 294821 at time 9338
Reenqueueing errored packet 296473 at time 9341
Additional hops: 14958
Set signal latency stall time: 16
Reenqueueing errored packet 309669 at time 9344
Additional hops: 14963
Set signal latency stall time: 10
Reenqueueing errored packet 317427 at time 9348
Reenqueueing errored packet 304811 at time 9353
Additional hops: 14974
Set signal latency stall time: 22
Reenqueueing errored packet 347540 at time 9358
Reenqueueing errored packet 319646 at time 9360
Additional hops: 14978
Set signal latency stall time: 8
Reenqueueing errored packet 313068 at time 9377
Additional hops: 14983
Set signal latency stall time: 10
Reenqueueing errored packet 346625 at time 9381
Additional hops: 14993
Set signal latency stall time: 20
Additional hops: 15002
Set signal latency stall time: 18
Additional hops: 15008
Set signal latency stall time: 12
Additional hops: 15014
Set signal latency stall time: 12
Additional hops: 15022
Set signal latency stall time: 16
Additional hops: 15028
Set signal latency stall time: 12
Reenqueueing errored packet 346630 at time 9409
Additional hops: 15036
Set signal latency stall time: 16
Reenqueueing errored packet 350267 at time 9415
Additional hops: 15044
Set signal latency stall time: 16
Reenqueueing errored packet 347405 at time 9418
Additional hops: 15052
Set signal latency stall time: 16
Reenqueueing errored packet 348283 at time 9432
Additional hops: 15056
Set signal latency stall time: 8
Additional hops: 15064
Set signal latency stall time: 16
Reenqueueing errored packet 261351 at time 9440
Reenqueueing errored packet 363990 at time 9441
Additional hops: 15069
Set signal latency stall time: 10
Reenqueueing errored packet 321626 at time 9456
Additional hops: 15077
Set signal latency stall time: 16
Additional hops: 15085
Set signal latency stall time: 16
Reenqueueing errored packet 328351 at time 9461
Additional hops: 15097
Set signal latency stall time: 24
Additional hops: 15107
Set signal latency stall time: 20
Reenqueueing errored packet 340201 at time 9474
Additional hops: 15118
Set signal latency stall time: 22
Additional hops: 15126
Set signal latency stall time: 16
Reenqueueing errored packet 344927 at time 9477
Additional hops: 15129
Set signal latency stall time: 6
Reenqueueing errored packet 364941 at time 9485
Additional hops: 15136
Set signal latency stall time: 14
Additional hops: 15141
Set signal latency stall time: 10
Reenqueueing errored packet 244680 at time 9490
Reenqueueing errored packet 304034 at time 9491
Additional hops: 15146
Set signal latency stall time: 10
Reenqueueing errored packet 335317 at time 9493
Reenqueueing errored packet 353069 at time 9500
Additional hops: 15154
Set signal latency stall time: 16
Reenqueueing errored packet 333439 at time 9504
Additional hops: 15159
Set signal latency stall time: 10
Additional hops: 15166
Set signal latency stall time: 14
Additional hops: 15173
Set signal latency stall time: 14
Additional hops: 15180
Set signal latency stall time: 14
Reenqueueing errored packet 349851 at time 9518
Reenqueueing errored packet 356389 at time 9520
Reenqueueing errored packet 349977 at time 9525
Additional hops: 15185
Set signal latency stall time: 10
Additional hops: 15189
Set signal latency stall time: 8
Additional hops: 15200
Set signal latency stall time: 22
Additional hops: 15208
Set signal latency stall time: 16
Additional hops: 15216
Set signal latency stall time: 16
Additional hops: 15223
Set signal latency stall time: 14
Additional hops: 15236
Set signal latency stall time: 26
Additional hops: 15240
Set signal latency stall time: 8
Additional hops: 15249
Set signal latency stall time: 18
Reenqueueing errored packet 351792 at time 9556
Reenqueueing errored packet 328827 at time 9556
Reenqueueing errored packet 317852 at time 9556
Reenqueueing errored packet 336461 at time 9557
Reenqueueing errored packet 298532 at time 9558
Additional hops: 15255
Set signal latency stall time: 12
Additional hops: 15261
Set signal latency stall time: 12
Additional hops: 15267
Set signal latency stall time: 12
Reenqueueing errored packet 330272 at time 9569
Additional hops: 15276
Set signal latency stall time: 18
Reenqueueing errored packet 324714 at time 9577
Reenqueueing errored packet 330502 at time 9581
Additional hops: 15285
Set signal latency stall time: 18
Reenqueueing errored packet 326456 at time 9592
Additional hops: 15292
Set signal latency stall time: 14
Additional hops: 15298
Set signal latency stall time: 12
Reenqueueing errored packet 235352 at time 9606
Additional hops: 15303
Set signal latency stall time: 10
Additional hops: 15308
Set signal latency stall time: 10
Additional hops: 15313
Set signal latency stall time: 10
Additional hops: 15322
Set signal latency stall time: 18
Additional hops: 15328
Set signal latency stall time: 12
Reenqueueing errored packet 332588 at time 9617
Additional hops: 15331
Set signal latency stall time: 6
Reenqueueing errored packet 369673 at time 9618
Reenqueueing errored packet 352751 at time 9619
Reenqueueing errored packet 348383 at time 9619
Reenqueueing errored packet 336756 at time 9621
Reenqueueing errored packet 370499 at time 9624
Additional hops: 15343
Set signal latency stall time: 24
Additional hops: 15348
Set signal latency stall time: 10
Additional hops: 15356
Set signal latency stall time: 16
Reenqueueing errored packet 352720 at time 9631
Additional hops: 15359
Set signal latency stall time: 6
Reenqueueing errored packet 354312 at time 9637
Additional hops: 15365
Set signal latency stall time: 12
Additional hops: 15373
Set signal latency stall time: 16
Additional hops: 15379
Set signal latency stall time: 12
Reenqueueing errored packet 355386 at time 9642
Additional hops: 15389
Set signal latency stall time: 20
Reenqueueing errored packet 240049 at time 9644
Additional hops: 15394
Set signal latency stall time: 10
Additional hops: 15400
Set signal latency stall time: 12
Reenqueueing errored packet 334405 at time 9650
Additional hops: 15410
Set signal latency stall time: 20
Additional hops: 15420
Set signal latency stall time: 20
Reenqueueing errored packet 350570 at time 9653
Additional hops: 15429
Set signal latency stall time: 18
Reenqueueing errored packet 370594 at time 9656
Additional hops: 15435
Set signal latency stall time: 12
Additional hops: 15448
Set signal latency stall time: 26
Reenqueueing errored packet 257188 at time 9657
Reenqueueing errored packet 332361 at time 9658
Additional hops: 15454
Set signal latency stall time: 12
Additional hops: 15463
Set signal latency stall time: 18
Additional hops: 15468
Set signal latency stall time: 10
Additional hops: 15473
Set signal latency stall time: 10
Additional hops: 15485
Set signal latency stall time: 24
Additional hops: 15493
Set signal latency stall time: 16
Reenqueueing errored packet 359667 at time 9669
Additional hops: 15502
Set signal latency stall time: 18
Reenqueueing errored packet 351264 at time 9672
Reenqueueing errored packet 343228 at time 9672
Reenqueueing errored packet 329902 at time 9672
Reenqueueing errored packet 341421 at time 9672
Reenqueueing errored packet 334877 at time 9673
Additional hops: 15512
Set signal latency stall time: 20
Reenqueueing errored packet 264757 at time 9676
Additional hops: 15520
Set signal latency stall time: 16
Additional hops: 15523
Set signal latency stall time: 6
Reenqueueing errored packet 241731 at time 9680
Additional hops: 15531
Set signal latency stall time: 16
Additional hops: 15540
Set signal latency stall time: 18
Additional hops: 15543
Set signal latency stall time: 6
Reenqueueing errored packet 372692 at time 9685
Reenqueueing errored packet 322243 at time 9685
Reenqueueing errored packet 339088 at time 9689
Reenqueueing errored packet 341937 at time 9693
Reenqueueing errored packet 351616 at time 9696
Reenqueueing errored packet 323939 at time 9699
Additional hops: 15548
Set signal latency stall time: 10
Additional hops: 15554
Set signal latency stall time: 12
Reenqueueing errored packet 338618 at time 9702
Additional hops: 15566
Set signal latency stall time: 24
Additional hops: 15574
Set signal latency stall time: 16
Additional hops: 15583
Set signal latency stall time: 18
Reenqueueing errored packet 328922 at time 9713
Additional hops: 15591
Set signal latency stall time: 16
Additional hops: 15598
Set signal latency stall time: 14
Additional hops: 15602
Set signal latency stall time: 8
Additional hops: 15615
Set signal latency stall time: 26
Additional hops: 15623
Set signal latency stall time: 16
Reenqueueing errored packet 358451 at time 9746
Additional hops: 15630
Set signal latency stall time: 14
Additional hops: 15633
Set signal latency stall time: 6
Reenqueueing errored packet 353708 at time 9751
Reenqueueing errored packet 320610 at time 9752
Additional hops: 15638
Set signal latency stall time: 10
Reenqueueing errored packet 358804 at time 9753
Additional hops: 15648
Set signal latency stall time: 20
Reenqueueing errored packet 328681 at time 9761
Additional hops: 15654
Set signal latency stall time: 12
Additional hops: 15659
Set signal latency stall time: 10
Additional hops: 15664
Set signal latency stall time: 10
Reenqueueing errored packet 333304 at time 9774
Reenqueueing errored packet 346196 at time 9775
Additional hops: 15669
Set signal latency stall time: 10
Additional hops: 15680
Set signal latency stall time: 22
Reenqueueing errored packet 360623 at time 9781
Additional hops: 15691
Set signal latency stall time: 22
Additional hops: 15700
Set signal latency stall time: 18
Additional hops: 15702
Set signal latency stall time: 4
Additional hops: 15710
Set signal latency stall time: 16
Reenqueueing errored packet 373621 at time 9801
Additional hops: 15719
Set signal latency stall time: 18
Reenqueueing errored packet 313394 at time 9803
Additional hops: 15722
Set signal latency stall time: 6
Additional hops: 15730
Set signal latency stall time: 16
Reenqueueing errored packet 352724 at time 9813
Additional hops: 15735
Set signal latency stall time: 10
Additional hops: 15740
Set signal latency stall time: 10
Additional hops: 15743
Set signal latency stall time: 6
Additional hops: 15751
Set signal latency stall time: 16
Additional hops: 15760
Set signal latency stall time: 18
Additional hops: 15768
Set signal latency stall time: 16
Reenqueueing errored packet 352980 at time 9821
Additional hops: 15777
Set signal latency stall time: 18
Reenqueueing errored packet 369738 at time 9824
Additional hops: 15784
Set signal latency stall time: 14
Reenqueueing errored packet 372952 at time 9825
Reenqueueing errored packet 359956 at time 9825
Additional hops: 15789
Set signal latency stall time: 10
Additional hops: 15799
Set signal latency stall time: 20
Reenqueueing errored packet 353165 at time 9828
Reenqueueing errored packet 239922 at time 9835
Reenqueueing errored packet 332788 at time 9836
Additional hops: 15805
Set signal latency stall time: 12
Additional hops: 15812
Set signal latency stall time: 14
Reenqueueing errored packet 321510 at time 9837
Reenqueueing errored packet 336154 at time 9838
Reenqueueing errored packet 356269 at time 9839
Additional hops: 15820
Set signal latency stall time: 16
Additional hops: 15832
Set signal latency stall time: 24
Reenqueueing errored packet 341660 at time 9846
Additional hops: 15835
Set signal latency stall time: 6
Reenqueueing errored packet 350516 at time 9849
Reenqueueing errored packet 340642 at time 9851
Additional hops: 15838
Set signal latency stall time: 6
Additional hops: 15846
Set signal latency stall time: 16
Additional hops: 15850
Set signal latency stall time: 8
Reenqueueing errored packet 378078 at time 9855
Reenqueueing errored packet 362978 at time 9857
Additional hops: 15857
Set signal latency stall time: 14
Additional hops: 15865
Set signal latency stall time: 16
Additional hops: 15876
Set signal latency stall time: 22
Reenqueueing errored packet 335018 at time 9871
Additional hops: 15886
Set signal latency stall time: 20
Additional hops: 15895
Set signal latency stall time: 18
Additional hops: 15903
Set signal latency stall time: 16
Additional hops: 15910
Set signal latency stall time: 14
Additional hops: 15916
Set signal latency stall time: 12
Additional hops: 15920
Set signal latency stall time: 8
Additional hops: 15928
Set signal latency stall time: 16
Reenqueueing errored packet 349170 at time 9900
Additional hops: 15940
Set signal latency stall time: 24
Reenqueueing errored packet 346971 at time 9902
Reenqueueing errored packet 354864 at time 9903
Additional hops: 15948
Set signal latency stall time: 16
Additional hops: 15956
Set signal latency stall time: 16
Additional hops: 15964
Set signal latency stall time: 16
Additional hops: 15969
Set signal latency stall time: 10
Additional hops: 15974
Set signal latency stall time: 10
Additional hops: 15983
Set signal latency stall time: 18
Additional hops: 15987
Set signal latency stall time: 8
Additional hops: 15992
Set signal latency stall time: 10
Reenqueueing errored packet 251124 at time 9921
Reenqueueing errored packet 338719 at time 9922
Reenqueueing errored packet 377767 at time 9922
Additional hops: 15995
Set signal latency stall time: 6
Reenqueueing errored packet 360366 at time 9927
Additional hops: 15998
Set signal latency stall time: 6
Additional hops: 16009
Set signal latency stall time: 22
Reenqueueing errored packet 352054 at time 9930
Reenqueueing errored packet 334047 at time 9933
Reenqueueing errored packet 366994 at time 9935
Reenqueueing errored packet 346945 at time 9936
Additional hops: 16018
Set signal latency stall time: 18
Additional hops: 16022
Set signal latency stall time: 8
Additional hops: 16031
Set signal latency stall time: 18
Additional hops: 16038
Set signal latency stall time: 14
Reenqueueing errored packet 378889 at time 9945
Additional hops: 16046
Set signal latency stall time: 16
Additional hops: 16057
Set signal latency stall time: 22
Additional hops: 16062
Set signal latency stall time: 10
Reenqueueing errored packet 315087 at time 9952
Additional hops: 16068
Set signal latency stall time: 12
Additional hops: 16074
Set signal latency stall time: 12
Reenqueueing errored packet 257494 at time 9959
Additional hops: 16079
Set signal latency stall time: 10
Reenqueueing errored packet 364096 at time 9960
Reenqueueing errored packet 351115 at time 9965
Reenqueueing errored packet 340590 at time 9967
Additional hops: 16087
Set signal latency stall time: 16
Reenqueueing errored packet 269102 at time 9970
Additional hops: 16093
Set signal latency stall time: 12
Additional hops: 16105
Set signal latency stall time: 24
Additional hops: 16113
Set signal latency stall time: 16
Additional hops: 16118
Set signal latency stall time: 10
Additional hops: 16128
Set signal latency stall time: 20
Reenqueueing errored packet 365207 at time 9983
Additional hops: 16139
Set signal latency stall time: 22
Reenqueueing errored packet 368656 at time 9991
Reenqueueing errored packet 365267 at time 9992
Reenqueueing errored packet 344176 at time 9996
Additional hops: 16143
Set signal latency stall time: 8
Additional hops: 16148
Set signal latency stall time: 10
Class 0:
Packet latency average = 902.855
	minimum = 5
	maximum = 6776
Network latency average = 889.642
	minimum = 5
	maximum = 4762
Slowest packet = 2522
Flit latency average = 889.642
	minimum = 5
	maximum = 4762
Slowest flit = 216265
Fragmentation average = 0
	minimum = 0
	maximum = 0
Injected packet rate average = 0.602408
	minimum = 0.5131 (at node 14)
	maximum = 0.6663 (at node 59)
Accepted packet rate average = 0.509817
	minimum = 0.4935 (at node 36)
	maximum = 0.5254 (at node 14)
Injected flit rate average = 0.602408
	minimum = 0.5131 (at node 14)
	maximum = 0.6663 (at node 59)
Accepted flit rate average= 0.509817
	minimum = 0.4935 (at node 36)
	maximum = 0.5254 (at node 14)
Injected packet length average = 1
Accepted packet length average = 1
Total in-flight flits = 59485 (0 measured)
latency change    = 1
throughput change = 1
Average latency for class 0 exceeded 500 cycles. Aborting simulation.
Too many sample periods needed to converge
Simulation unstable, ending ...
Total run time 51.6352
