BEGIN Configuration File: examples/ecc_mesh88_config_1_0.450_link_5
// $Id$

// Copyright (c) 2007-2015, Trustees of The Leland Stanford Junior University
// All rights reserved.
//
// Redistribution and use in source and binary forms, with or without
// modification, are permitted provided that the following conditions are met:
//
// Redistributions of source code must retain the above copyright notice, this
// list of conditions and the following disclaimer.
// Redistributions in binary form must reproduce the above copyright notice,
// this list of conditions and the following disclaimer in the documentation
// and/or other materials provided with the distribution.
//
// THIS SOFTWARE IS PROVIDED BY THE COPYRIGHT HOLDERS AND CONTRIBUTORS "AS IS"
// AND ANY EXPRESS OR IMPLIED WARRANTIES, INCLUDING, BUT NOT LIMITED TO, THE
// IMPLIED WARRANTIES OF MERCHANTABILITY AND FITNESS FOR A PARTICULAR PURPOSE
// ARE DISCLAIMED. IN NO EVENT SHALL THE COPYRIGHT OWNER OR CONTRIBUTORS BE
// LIABLE FOR ANY DIRECT, INDIRECT, INCIDENTAL, SPECIAL, EXEMPLARY, OR
// CONSEQUENTIAL DAMAGES (INCLUDING, BUT NOT LIMITED TO, PROCUREMENT OF
// SUBSTITUTE GOODS OR SERVICES; LOSS OF USE, DATA, OR PROFITS; OR BUSINESS
// INTERRUPTION) HOWEVER CAUSED AND ON ANY THEORY OF LIABILITY, WHETHER IN
// CONTRACT, STRICT LIABILITY, OR TORT (INCLUDING NEGLIGENCE OR OTHERWISE)
// ARISING IN ANY WAY OUT OF THE USE OF THIS SOFTWARE, EVEN IF ADVISED OF THE
// POSSIBILITY OF SUCH DAMAGE.

// Dragonfly
//




vc_buf_size = 256;


wait_for_tail_credit = 0;

//
// Router architecture
//
vc_allocator = separable_input_first; 
sw_allocator = separable_input_first;
alloc_iters  = 1;

credit_delay   = 2;
routing_delay  = 0;
vc_alloc_delay = 1;
sw_alloc_delay = 1;
st_final_delay = 1;

input_speedup     = 1;
output_speedup    = 1;
internal_speedup  = 2.0;


warmup_periods = 3;
sim_count          = 1;

sample_period  = 10000;  


routing_function = dor;
num_vcs     = 2;

priority = none;
traffic       = uniform; 

injection_rate = 0.45;
packet_size = 1;
injection_rate_uses_flits = 1;

topology = mesh;

k  = 8;
n  = 2;

fer = 5;
ecc = link;

watch_out=-;
//watch_file = watch.txt;

ecc = link;

stats_out = examples/ecc_mesh88_config_1_0.450_link_5.m;

END Configuration File: examples/ecc_mesh88_config_1_0.450_link_5
1
Received nack credit for flit 5480
Requeued flit 5480
7
Received nack credit for flit 5370
Requeued flit 5370
6
Received nack credit for flit 14786
Requeued flit 14786
2
Received nack credit for flit 31781
Requeued flit 31781
3
Received nack credit for flit 48674
Requeued flit 48674
2
Received nack credit for flit 66160
Requeued flit 66160
8
Received nack credit for flit 82208
Requeued flit 82208
2
Received nack credit for flit 126264
Requeued flit 126264
1
Received nack credit for flit 133804
Requeued flit 133804
2
Received nack credit for flit 137800
Requeued flit 137800
1
1
Received nack credit for flit 142452
Requeued flit 142452
Received nack credit for flit 142522
Requeued flit 142522
7
Received nack credit for flit 145866
Requeued flit 145866
3
Received nack credit for flit 171900
Requeued flit 171900
6
Received nack credit for flit 173453
Requeued flit 173453
4
Received nack credit for flit 205720
Requeued flit 205720
4
Received nack credit for flit 207352
Requeued flit 207352
1
Received nack credit for flit 251328
Requeued flit 251328
1
Received nack credit for flit 252466
Requeued flit 252466
2
Received nack credit for flit 259076
Requeued flit 259076
1
Received nack credit for flit 281962
Requeued flit 281962
Class 0:
Packet latency average = 26.9572
	minimum = 5
	maximum = 96
Network latency average = 26.9572
	minimum = 5
	maximum = 96
Slowest packet = 46066
Flit latency average = 26.9572
	minimum = 5
	maximum = 96
Slowest flit = 46066
Fragmentation average = 0
	minimum = 0
	maximum = 0
Injected packet rate average = 0.449041
	minimum = 0.4397 (at node 23)
	maximum = 0.4583 (at node 16)
Accepted packet rate average = 0.447848
	minimum = 0.4344 (at node 21)
	maximum = 0.4614 (at node 28)
Injected flit rate average = 0.449041
	minimum = 0.4397 (at node 23)
	maximum = 0.4583 (at node 16)
Accepted flit rate average= 0.447848
	minimum = 0.4344 (at node 21)
	maximum = 0.4614 (at node 28)
Injected packet length average = 1
Accepted packet length average = 1
Total in-flight flits = 763 (0 measured)
latency change    = 1
throughput change = 1
2
Received nack credit for flit 287298
Requeued flit 287298
2
Received nack credit for flit 304338
Requeued flit 304338
2
Received nack credit for flit 359545
Requeued flit 359545
3
Received nack credit for flit 383708
Requeued flit 383708
6
Received nack credit for flit 383733
Requeued flit 383733
3
Received nack credit for flit 385546
Requeued flit 385546
4
Received nack credit for flit 395918
Requeued flit 395918
6
Received nack credit for flit 398087
Requeued flit 398087
4
Received nack credit for flit 399776
Requeued flit 399776
5
Received nack credit for flit 452470
Requeued flit 452470
1
Received nack credit for flit 456140
Requeued flit 456140
6
Received nack credit for flit 461356
Requeued flit 461356
9
Received nack credit for flit 492259
Requeued flit 492259
1
Received nack credit for flit 501617
Requeued flit 501617
Class 0:
Packet latency average = 26.9692
	minimum = 5
	maximum = 96
Network latency average = 26.9692
	minimum = 5
	maximum = 96
Slowest packet = 46066
Flit latency average = 26.9692
	minimum = 5
	maximum = 96
Slowest flit = 46066
Fragmentation average = 0
	minimum = 0
	maximum = 0
Injected packet rate average = 0.449012
	minimum = 0.44325 (at node 38)
	maximum = 0.45825 (at node 21)
Accepted packet rate average = 0.448433
	minimum = 0.4396 (at node 25)
	maximum = 0.459 (at node 39)
Injected flit rate average = 0.449012
	minimum = 0.44325 (at node 38)
	maximum = 0.45825 (at node 21)
Accepted flit rate average= 0.448433
	minimum = 0.4396 (at node 25)
	maximum = 0.459 (at node 39)
Injected packet length average = 1
Accepted packet length average = 1
Total in-flight flits = 741 (0 measured)
latency change    = 0.000445086
throughput change = 0.00130315
8
3
Received nack credit for flit 587530
Requeued flit 587530
Received nack credit for flit 588376
Requeued flit 588376
1
Received nack credit for flit 643243
Requeued flit 643243
3
Received nack credit for flit 674243
Requeued flit 674243
1
Received nack credit for flit 694699
Requeued flit 694699
8
Received nack credit for flit 700690
Requeued flit 700690
1
Received nack credit for flit 705602
Requeued flit 705602
1
Received nack credit for flit 712664
Requeued flit 712664
3
Received nack credit for flit 714709
Requeued flit 714709
1
Received nack credit for flit 730673
Requeued flit 730673
1
Received nack credit for flit 732333
Requeued flit 732333
3
Received nack credit for flit 750294
Requeued flit 750294
6
Received nack credit for flit 757398
Requeued flit 757398
3
Received nack credit for flit 772439
Requeued flit 772439
4
Received nack credit for flit 816067
Requeued flit 816067
1
Received nack credit for flit 821800
Requeued flit 821800
1
Received nack credit for flit 825003
Requeued flit 825003
5
Received nack credit for flit 826246
Requeued flit 826246
Class 0:
Packet latency average = 27.0093
	minimum = 5
	maximum = 93
Network latency average = 27.0093
	minimum = 5
	maximum = 93
Slowest packet = 695429
Flit latency average = 27.0093
	minimum = 5
	maximum = 93
Slowest flit = 695429
Fragmentation average = 0
	minimum = 0
	maximum = 0
Injected packet rate average = 0.4492
	minimum = 0.4408 (at node 63)
	maximum = 0.4574 (at node 27)
Accepted packet rate average = 0.44912
	minimum = 0.4286 (at node 62)
	maximum = 0.4583 (at node 15)
Injected flit rate average = 0.4492
	minimum = 0.4408 (at node 63)
	maximum = 0.4574 (at node 27)
Accepted flit rate average= 0.44912
	minimum = 0.4286 (at node 62)
	maximum = 0.4583 (at node 15)
Injected packet length average = 1
Accepted packet length average = 1
Total in-flight flits = 792 (0 measured)
latency change    = 0.00148253
throughput change = 0.00153077
Warmed up ...Time used is 30000 cycles
1
Received nack credit for flit 866781
Requeued flit 866781
1
Received nack credit for flit 874622
Requeued flit 874622
1
Received nack credit for flit 886927
Requeued flit 886927
1
Received nack credit for flit 890758
Requeued flit 890758
1
Received nack credit for flit 895129
Requeued flit 895129
1
9
Received nack credit for flit 947178
Requeued flit 947178
Received nack credit for flit 946092
Requeued flit 946092
4
Received nack credit for flit 954565
Requeued flit 954565
3
Received nack credit for flit 959528
Requeued flit 959528
1
Received nack credit for flit 993479
Requeued flit 993479
7
1
Received nack credit for flit 1053519
Requeued flit 1053519
Received nack credit for flit 1054269
Requeued flit 1054269
1
Received nack credit for flit 1105698
Requeued flit 1105698
1
Received nack credit for flit 1117284
Requeued flit 1117284
5
Received nack credit for flit 1120472
Requeued flit 1120472
Class 0:
Packet latency average = 27.1942
	minimum = 5
	maximum = 94
Network latency average = 27.1942
	minimum = 5
	maximum = 94
Slowest packet = 1076270
Flit latency average = 27.2126
	minimum = 5
	maximum = 94
Slowest flit = 1076270
Fragmentation average = 0
	minimum = 0
	maximum = 0
Injected packet rate average = 0.449981
	minimum = 0.44 (at node 61)
	maximum = 0.4612 (at node 12)
Accepted packet rate average = 0.450048
	minimum = 0.4347 (at node 14)
	maximum = 0.4686 (at node 63)
Injected flit rate average = 0.449981
	minimum = 0.44 (at node 61)
	maximum = 0.4612 (at node 12)
Accepted flit rate average= 0.450048
	minimum = 0.4347 (at node 14)
	maximum = 0.4686 (at node 63)
Injected packet length average = 1
Accepted packet length average = 1
Total in-flight flits = 749 (749 measured)
latency change    = 0.0068021
throughput change = 0.00206228
4
Received nack credit for flit 1152447
Requeued flit 1152447
7
Received nack credit for flit 1170941
Requeued flit 1170941
3
Received nack credit for flit 1174152
Requeued flit 1174152
1
Received nack credit for flit 1180997
Requeued flit 1180997
8
Received nack credit for flit 1180362
Requeued flit 1180362
3
Received nack credit for flit 1202987
Requeued flit 1202987
1
Received nack credit for flit 1219896
Requeued flit 1219896
1
Received nack credit for flit 1232638
Requeued flit 1232638
2
2
Received nack credit for flit 1236800
Requeued flit 1236800
Received nack credit for flit 1236901
Requeued flit 1236901
1
Received nack credit for flit 1245052
Requeued flit 1245052
4
Received nack credit for flit 1255501
Requeued flit 1255501
2
Received nack credit for flit 1272282
Requeued flit 1272282
5
Received nack credit for flit 1276018
Requeued flit 1276018
5
Received nack credit for flit 1302430
Requeued flit 1302430
1
Received nack credit for flit 1307309
Requeued flit 1307309
4
Received nack credit for flit 1359103
Requeued flit 1359103
1
Received nack credit for flit 1419781
Requeued flit 1419781
1
Received nack credit for flit 1434837
Requeued flit 1434837
1
Received nack credit for flit 1435640
Requeued flit 1435640
Class 0:
Packet latency average = 27.2045
	minimum = 5
	maximum = 95
Network latency average = 27.2045
	minimum = 5
	maximum = 95
Slowest packet = 1271829
Flit latency average = 27.2137
	minimum = 5
	maximum = 95
Slowest flit = 1271829
Fragmentation average = 0
	minimum = 0
	maximum = 0
Injected packet rate average = 0.450045
	minimum = 0.44295 (at node 42)
	maximum = 0.45545 (at node 45)
Accepted packet rate average = 0.45008
	minimum = 0.4386 (at node 18)
	maximum = 0.46095 (at node 0)
Injected flit rate average = 0.450045
	minimum = 0.44295 (at node 42)
	maximum = 0.45545 (at node 45)
Accepted flit rate average= 0.45008
	minimum = 0.4386 (at node 18)
	maximum = 0.46095 (at node 0)
Injected packet length average = 1
Accepted packet length average = 1
Total in-flight flits = 747 (747 measured)
latency change    = 0.000378199
throughput change = 7.11678e-05
1
Received nack credit for flit 1448206
Requeued flit 1448206
3
Received nack credit for flit 1461473
Requeued flit 1461473
4
Received nack credit for flit 1501828
Requeued flit 1501828
1
Received nack credit for flit 1506243
Requeued flit 1506243
1
Received nack credit for flit 1509679
Requeued flit 1509679
7
Received nack credit for flit 1522172
Requeued flit 1522172
10
Received nack credit for flit 1550673
Requeued flit 1550673
2
Received nack credit for flit 1564044
Requeued flit 1564044
4
Received nack credit for flit 1569517
Requeued flit 1569517
2
Received nack credit for flit 1572046
Requeued flit 1572046
6
Received nack credit for flit 1576425
Requeued flit 1576425
1
5
Received nack credit for flit 1582420
Requeued flit 1582420
Received nack credit for flit 1581698
Requeued flit 1581698
1
Received nack credit for flit 1604314
Requeued flit 1604314
2
Received nack credit for flit 1607111
Requeued flit 1607111
1
Received nack credit for flit 1617133
Requeued flit 1617133
1
Received nack credit for flit 1634700
Requeued flit 1634700
1
Received nack credit for flit 1680372
Requeued flit 1680372
2
Received nack credit for flit 1692790
Requeued flit 1692790
1
Received nack credit for flit 1699371
Requeued flit 1699371
1
Received nack credit for flit 1718446
Requeued flit 1718446
1
Received nack credit for flit 1723062
Requeued flit 1723062
4
Received nack credit for flit 1723988
Requeued flit 1723988
4
Received nack credit for flit 1724388
Requeued flit 1724388
1
Received nack credit for flit 1725443
Requeued flit 1725443
Class 0:
Packet latency average = 27.1732
	minimum = 5
	maximum = 95
Network latency average = 27.1732
	minimum = 5
	maximum = 95
Slowest packet = 1271829
Flit latency average = 27.1794
	minimum = 5
	maximum = 95
Slowest flit = 1271829
Fragmentation average = 0
	minimum = 0
	maximum = 0
Injected packet rate average = 0.449831
	minimum = 0.443833 (at node 42)
	maximum = 0.455033 (at node 52)
Accepted packet rate average = 0.449835
	minimum = 0.440333 (at node 40)
	maximum = 0.457 (at node 38)
Injected flit rate average = 0.449831
	minimum = 0.443833 (at node 42)
	maximum = 0.455033 (at node 52)
Accepted flit rate average= 0.449835
	minimum = 0.440333 (at node 40)
	maximum = 0.457 (at node 38)
Injected packet length average = 1
Accepted packet length average = 1
Total in-flight flits = 784 (784 measured)
latency change    = 0.0011513
throughput change = 0.000544759
Draining all recorded packets ...
Draining remaining packets ...
Time taken is 60118 cycles
====== Overall Traffic Statistics ======
====== Traffic class 0 ======
Packet latency average = 27.1787 (1 samples)
	minimum = 5 (1 samples)
	maximum = 95 (1 samples)
Network latency average = 27.1787 (1 samples)
	minimum = 5 (1 samples)
	maximum = 95 (1 samples)
Flit latency average = 27.1847 (1 samples)
	minimum = 5 (1 samples)
	maximum = 95 (1 samples)
Fragmentation average = 0 (1 samples)
	minimum = 0 (1 samples)
	maximum = 0 (1 samples)
Injected packet rate average = 0.449831 (1 samples)
	minimum = 0.443833 (1 samples)
	maximum = 0.455033 (1 samples)
Accepted packet rate average = 0.449835 (1 samples)
	minimum = 0.440333 (1 samples)
	maximum = 0.457 (1 samples)
Injected flit rate average = 0.449831 (1 samples)
	minimum = 0.443833 (1 samples)
	maximum = 0.455033 (1 samples)
Accepted flit rate average = 0.449835 (1 samples)
	minimum = 0.440333 (1 samples)
	maximum = 0.457 (1 samples)
Injected packet size average = 1 (1 samples)
Accepted packet size average = 1 (1 samples)
Hops average = 6.24961 (1 samples)
Total run time 123.117
