BEGIN Configuration File: examples/ecc_mesh88_config_1_0.250_packet_5
// $Id$

// Copyright (c) 2007-2015, Trustees of The Leland Stanford Junior University
// All rights reserved.
//
// Redistribution and use in source and binary forms, with or without
// modification, are permitted provided that the following conditions are met:
//
// Redistributions of source code must retain the above copyright notice, this
// list of conditions and the following disclaimer.
// Redistributions in binary form must reproduce the above copyright notice,
// this list of conditions and the following disclaimer in the documentation
// and/or other materials provided with the distribution.
//
// THIS SOFTWARE IS PROVIDED BY THE COPYRIGHT HOLDERS AND CONTRIBUTORS "AS IS"
// AND ANY EXPRESS OR IMPLIED WARRANTIES, INCLUDING, BUT NOT LIMITED TO, THE
// IMPLIED WARRANTIES OF MERCHANTABILITY AND FITNESS FOR A PARTICULAR PURPOSE
// ARE DISCLAIMED. IN NO EVENT SHALL THE COPYRIGHT OWNER OR CONTRIBUTORS BE
// LIABLE FOR ANY DIRECT, INDIRECT, INCIDENTAL, SPECIAL, EXEMPLARY, OR
// CONSEQUENTIAL DAMAGES (INCLUDING, BUT NOT LIMITED TO, PROCUREMENT OF
// SUBSTITUTE GOODS OR SERVICES; LOSS OF USE, DATA, OR PROFITS; OR BUSINESS
// INTERRUPTION) HOWEVER CAUSED AND ON ANY THEORY OF LIABILITY, WHETHER IN
// CONTRACT, STRICT LIABILITY, OR TORT (INCLUDING NEGLIGENCE OR OTHERWISE)
// ARISING IN ANY WAY OUT OF THE USE OF THIS SOFTWARE, EVEN IF ADVISED OF THE
// POSSIBILITY OF SUCH DAMAGE.

// Dragonfly
//




vc_buf_size = 256;


wait_for_tail_credit = 0;

//
// Router architecture
//
vc_allocator = separable_input_first; 
sw_allocator = separable_input_first;
alloc_iters  = 1;

credit_delay   = 2;
routing_delay  = 0;
vc_alloc_delay = 1;
sw_alloc_delay = 1;
st_final_delay = 1;

input_speedup     = 1;
output_speedup    = 1;
internal_speedup  = 2.0;


warmup_periods = 3;
sim_count          = 1;

sample_period  = 10000;  


routing_function = dor;
num_vcs     = 2;

priority = none;
traffic       = uniform; 

injection_rate = 0.25;
packet_size = 1;
injection_rate_uses_flits = 1;

topology = mesh;

k  = 8;
n  = 2;

fer = 5;
ecc = link;

watch_out=-;
//watch_file = watch.txt;

ecc = packet;

stats_out = examples/ecc_mesh88_config_1_0.250_packet_5.m;

END Configuration File: examples/ecc_mesh88_config_1_0.250_packet_5
Additional hops: 5
Set signal latency stall time: 10
Reenqueueing errored packet 5134 at time 350
Additional hops: 18
Set signal latency stall time: 26
Reenqueueing errored packet 12665 at time 859
Additional hops: 28
Set signal latency stall time: 20
Reenqueueing errored packet 25938 at time 1683
Additional hops: 34
Set signal latency stall time: 12
Reenqueueing errored packet 26648 at time 1710
Additional hops: 41
Set signal latency stall time: 14
Reenqueueing errored packet 41036 at time 2609
Additional hops: 51
Set signal latency stall time: 20
Reenqueueing errored packet 55279 at time 3511
Additional hops: 62
Set signal latency stall time: 22
Reenqueueing errored packet 69793 at time 4429
Additional hops: 71
Set signal latency stall time: 18
Reenqueueing errored packet 86379 at time 5463
Additional hops: 77
Set signal latency stall time: 12
Reenqueueing errored packet 106217 at time 6677
Additional hops: 89
Set signal latency stall time: 24
Reenqueueing errored packet 112115 at time 7075
Additional hops: 97
Set signal latency stall time: 16
Reenqueueing errored packet 114865 at time 7230
Additional hops: 107
Set signal latency stall time: 20
Reenqueueing errored packet 119445 at time 7521
Additional hops: 116
Set signal latency stall time: 18
Reenqueueing errored packet 144780 at time 9093
Additional hops: 121
Set signal latency stall time: 10
Reenqueueing errored packet 145456 at time 9119
Class 0:
Packet latency average = 21.6992
	minimum = 5
	maximum = 113
Network latency average = 21.695
	minimum = 5
	maximum = 54
Slowest packet = 2489
Flit latency average = 21.695
	minimum = 5
	maximum = 54
Slowest flit = 60992
Fragmentation average = 0
	minimum = 0
	maximum = 0
Injected packet rate average = 0.250252
	minimum = 0.2397 (at node 26)
	maximum = 0.2589 (at node 3)
Accepted packet rate average = 0.249681
	minimum = 0.2404 (at node 33)
	maximum = 0.2616 (at node 1)
Injected flit rate average = 0.250252
	minimum = 0.2397 (at node 26)
	maximum = 0.2589 (at node 3)
Accepted flit rate average= 0.249681
	minimum = 0.2404 (at node 33)
	maximum = 0.2616 (at node 1)
Injected packet length average = 1
Accepted packet length average = 1
Total in-flight flits = 365 (0 measured)
latency change    = 1
throughput change = 1
Additional hops: 126
Set signal latency stall time: 10
Reenqueueing errored packet 163535 at time 10239
Additional hops: 136
Set signal latency stall time: 20
Reenqueueing errored packet 190895 at time 11976
Additional hops: 146
Set signal latency stall time: 20
Reenqueueing errored packet 211202 at time 13256
Additional hops: 155
Set signal latency stall time: 18
Reenqueueing errored packet 211995 at time 13298
Additional hops: 163
Set signal latency stall time: 16
Reenqueueing errored packet 237147 at time 14861
Additional hops: 171
Set signal latency stall time: 16
Reenqueueing errored packet 241715 at time 15144
Additional hops: 179
Set signal latency stall time: 16
Reenqueueing errored packet 255839 at time 16030
Additional hops: 187
Set signal latency stall time: 16
Reenqueueing errored packet 272898 at time 17098
Additional hops: 190
Set signal latency stall time: 6
Reenqueueing errored packet 293202 at time 18353
Additional hops: 195
Set signal latency stall time: 10
Reenqueueing errored packet 302641 at time 18950
Class 0:
Packet latency average = 21.7091
	minimum = 5
	maximum = 113
Network latency average = 21.7057
	minimum = 5
	maximum = 55
Slowest packet = 2489
Flit latency average = 21.7057
	minimum = 5
	maximum = 55
Slowest flit = 273840
Fragmentation average = 0
	minimum = 0
	maximum = 0
Injected packet rate average = 0.249923
	minimum = 0.24325 (at node 27)
	maximum = 0.25785 (at node 37)
Accepted packet rate average = 0.249649
	minimum = 0.24105 (at node 21)
	maximum = 0.25835 (at node 28)
Injected flit rate average = 0.249923
	minimum = 0.24325 (at node 27)
	maximum = 0.25785 (at node 37)
Accepted flit rate average= 0.249649
	minimum = 0.24105 (at node 21)
	maximum = 0.25835 (at node 28)
Injected packet length average = 1
Accepted packet length average = 1
Total in-flight flits = 350 (0 measured)
latency change    = 0.000457118
throughput change = 0.000128305
Additional hops: 201
Set signal latency stall time: 12
Reenqueueing errored packet 322881 at time 20224
Additional hops: 207
Set signal latency stall time: 12
Reenqueueing errored packet 324144 at time 20301
Additional hops: 211
Set signal latency stall time: 8
Reenqueueing errored packet 325854 at time 20397
Additional hops: 223
Set signal latency stall time: 24
Reenqueueing errored packet 331023 at time 20757
Additional hops: 228
Set signal latency stall time: 10
Reenqueueing errored packet 333488 at time 20871
Additional hops: 235
Set signal latency stall time: 14
Reenqueueing errored packet 335636 at time 21013
Additional hops: 243
Set signal latency stall time: 16
Reenqueueing errored packet 379215 at time 23741
Additional hops: 257
Set signal latency stall time: 28
Reenqueueing errored packet 381004 at time 23884
Additional hops: 269
Set signal latency stall time: 24
Reenqueueing errored packet 383567 at time 24029
Additional hops: 277
Set signal latency stall time: 16
Reenqueueing errored packet 414869 at time 25973
Class 0:
Packet latency average = 21.6756
	minimum = 5
	maximum = 121
Network latency average = 21.6728
	minimum = 5
	maximum = 54
Slowest packet = 321248
Flit latency average = 21.6728
	minimum = 5
	maximum = 54
Slowest flit = 389505
Fragmentation average = 0
	minimum = 0
	maximum = 0
Injected packet rate average = 0.250297
	minimum = 0.2421 (at node 45)
	maximum = 0.2617 (at node 9)
Accepted packet rate average = 0.250316
	minimum = 0.2383 (at node 1)
	maximum = 0.2646 (at node 57)
Injected flit rate average = 0.250297
	minimum = 0.2421 (at node 45)
	maximum = 0.2617 (at node 9)
Accepted flit rate average= 0.250316
	minimum = 0.2383 (at node 1)
	maximum = 0.2646 (at node 57)
Injected packet length average = 1
Accepted packet length average = 1
Total in-flight flits = 338 (0 measured)
latency change    = 0.00154492
throughput change = 0.00266226
Warmed up ...Time used is 30000 cycles
Additional hops: 283
Set signal latency stall time: 12
Reenqueueing errored packet 493042 at time 30842
Additional hops: 291
Set signal latency stall time: 16
Additional hops: 294
Set signal latency stall time: 6
Reenqueueing errored packet 495590 at time 30987
Reenqueueing errored packet 495324 at time 30995
Additional hops: 306
Set signal latency stall time: 24
Reenqueueing errored packet 505691 at time 31660
Additional hops: 313
Set signal latency stall time: 14
Reenqueueing errored packet 541548 at time 33899
Additional hops: 320
Set signal latency stall time: 14
Reenqueueing errored packet 567751 at time 35535
Additional hops: 327
Set signal latency stall time: 14
Reenqueueing errored packet 590564 at time 36965
Additional hops: 337
Set signal latency stall time: 20
Reenqueueing errored packet 594076 at time 37200
Additional hops: 346
Set signal latency stall time: 18
Reenqueueing errored packet 597193 at time 37389
Additional hops: 356
Set signal latency stall time: 20
Reenqueueing errored packet 599917 at time 37562
Additional hops: 361
Set signal latency stall time: 10
Reenqueueing errored packet 602061 at time 37672
Additional hops: 371
Set signal latency stall time: 20
Reenqueueing errored packet 615005 at time 38499
Additional hops: 377
Set signal latency stall time: 12
Reenqueueing errored packet 616459 at time 38570
Additional hops: 386
Set signal latency stall time: 18
Reenqueueing errored packet 631768 at time 39549
Class 0:
Packet latency average = 21.6345
	minimum = 5
	maximum = 102
Network latency average = 21.6307
	minimum = 5
	maximum = 57
Slowest packet = 480958
Flit latency average = 21.6383
	minimum = 5
	maximum = 57
Slowest flit = 589177
Fragmentation average = 0
	minimum = 0
	maximum = 0
Injected packet rate average = 0.249686
	minimum = 0.2403 (at node 29)
	maximum = 0.2592 (at node 27)
Accepted packet rate average = 0.249667
	minimum = 0.239 (at node 20)
	maximum = 0.2602 (at node 31)
Injected flit rate average = 0.249686
	minimum = 0.2403 (at node 29)
	maximum = 0.2592 (at node 27)
Accepted flit rate average= 0.249667
	minimum = 0.239 (at node 20)
	maximum = 0.2602 (at node 31)
Injected packet length average = 1
Accepted packet length average = 1
Total in-flight flits = 350 (350 measured)
latency change    = 0.00190374
throughput change = 0.00259721
Additional hops: 391
Set signal latency stall time: 10
Reenqueueing errored packet 673495 at time 42119
Additional hops: 395
Set signal latency stall time: 8
Reenqueueing errored packet 687452 at time 42995
Additional hops: 405
Set signal latency stall time: 20
Reenqueueing errored packet 691920 at time 43303
Additional hops: 415
Set signal latency stall time: 20
Reenqueueing errored packet 694577 at time 43478
Additional hops: 424
Set signal latency stall time: 18
Reenqueueing errored packet 712127 at time 44578
Additional hops: 431
Set signal latency stall time: 14
Reenqueueing errored packet 729749 at time 45676
Additional hops: 439
Set signal latency stall time: 16
Reenqueueing errored packet 736320 at time 46100
Additional hops: 446
Set signal latency stall time: 14
Reenqueueing errored packet 746560 at time 46733
Additional hops: 452
Set signal latency stall time: 12
Reenqueueing errored packet 753493 at time 47163
Additional hops: 453
Set signal latency stall time: 2
Reenqueueing errored packet 777397 at time 48624
Additional hops: 465
Set signal latency stall time: 24
Reenqueueing errored packet 788086 at time 49342
Additional hops: 479
Set signal latency stall time: 28
Reenqueueing errored packet 797074 at time 49912
Class 0:
Packet latency average = 21.6573
	minimum = 5
	maximum = 122
Network latency average = 21.6538
	minimum = 5
	maximum = 57
Slowest packet = 480958
Flit latency average = 21.6576
	minimum = 5
	maximum = 57
Slowest flit = 589177
Fragmentation average = 0
	minimum = 0
	maximum = 0
Injected packet rate average = 0.249737
	minimum = 0.24265 (at node 50)
	maximum = 0.25515 (at node 19)
Accepted packet rate average = 0.249725
	minimum = 0.24285 (at node 14)
	maximum = 0.2559 (at node 57)
Injected flit rate average = 0.249737
	minimum = 0.24265 (at node 50)
	maximum = 0.25515 (at node 19)
Accepted flit rate average= 0.249725
	minimum = 0.24285 (at node 14)
	maximum = 0.2559 (at node 57)
Injected packet length average = 1
Accepted packet length average = 1
Total in-flight flits = 353 (353 measured)
latency change    = 0.00105618
throughput change = 0.000231505
Additional hops: 484
Set signal latency stall time: 10
Reenqueueing errored packet 804173 at time 50303
Additional hops: 491
Set signal latency stall time: 14
Reenqueueing errored packet 819398 at time 51271
Additional hops: 498
Set signal latency stall time: 14
Reenqueueing errored packet 836473 at time 52332
Additional hops: 506
Set signal latency stall time: 16
Reenqueueing errored packet 838245 at time 52448
Additional hops: 510
Set signal latency stall time: 8
Reenqueueing errored packet 869259 at time 54380
Additional hops: 515
Set signal latency stall time: 10
Reenqueueing errored packet 887754 at time 55552
Additional hops: 519
Set signal latency stall time: 8
Reenqueueing errored packet 922208 at time 57703
Additional hops: 525
Set signal latency stall time: 12
Reenqueueing errored packet 930894 at time 58251
Additional hops: 530
Set signal latency stall time: 10
Reenqueueing errored packet 940855 at time 58867
Class 0:
Packet latency average = 21.6606
	minimum = 5
	maximum = 122
Network latency average = 21.6577
	minimum = 5
	maximum = 58
Slowest packet = 480958
Flit latency average = 21.6602
	minimum = 5
	maximum = 58
Slowest flit = 837838
Fragmentation average = 0
	minimum = 0
	maximum = 0
Injected packet rate average = 0.249804
	minimum = 0.2441 (at node 9)
	maximum = 0.2549 (at node 7)
Accepted packet rate average = 0.249806
	minimum = 0.2433 (at node 4)
	maximum = 0.256367 (at node 15)
Injected flit rate average = 0.249804
	minimum = 0.2441 (at node 9)
	maximum = 0.2549 (at node 7)
Accepted flit rate average= 0.249806
	minimum = 0.2433 (at node 4)
	maximum = 0.256367 (at node 15)
Injected packet length average = 1
Accepted packet length average = 1
Total in-flight flits = 333 (333 measured)
latency change    = 0.000151021
throughput change = 0.000325252
Draining all recorded packets ...
Draining remaining packets ...
Time taken is 60095 cycles
====== Overall Traffic Statistics ======
====== Traffic class 0 ======
Packet latency average = 21.6633 (1 samples)
	minimum = 5 (1 samples)
	maximum = 122 (1 samples)
Network latency average = 21.6603 (1 samples)
	minimum = 5 (1 samples)
	maximum = 58 (1 samples)
Flit latency average = 21.6624 (1 samples)
	minimum = 5 (1 samples)
	maximum = 58 (1 samples)
Fragmentation average = 0 (1 samples)
	minimum = 0 (1 samples)
	maximum = 0 (1 samples)
Injected packet rate average = 0.249804 (1 samples)
	minimum = 0.2441 (1 samples)
	maximum = 0.2549 (1 samples)
Accepted packet rate average = 0.249806 (1 samples)
	minimum = 0.2433 (1 samples)
	maximum = 0.256367 (1 samples)
Injected flit rate average = 0.249804 (1 samples)
	minimum = 0.2441 (1 samples)
	maximum = 0.2549 (1 samples)
Accepted flit rate average = 0.249806 (1 samples)
	minimum = 0.2433 (1 samples)
	maximum = 0.256367 (1 samples)
Injected packet size average = 1 (1 samples)
Accepted packet size average = 1 (1 samples)
Hops average = 6.24496 (1 samples)
Total run time 87.0342
