BEGIN Configuration File: examples/ecc_mesh88_config_1_0.900_link_3
// $Id$

// Copyright (c) 2007-2015, Trustees of The Leland Stanford Junior University
// All rights reserved.
//
// Redistribution and use in source and binary forms, with or without
// modification, are permitted provided that the following conditions are met:
//
// Redistributions of source code must retain the above copyright notice, this
// list of conditions and the following disclaimer.
// Redistributions in binary form must reproduce the above copyright notice,
// this list of conditions and the following disclaimer in the documentation
// and/or other materials provided with the distribution.
//
// THIS SOFTWARE IS PROVIDED BY THE COPYRIGHT HOLDERS AND CONTRIBUTORS "AS IS"
// AND ANY EXPRESS OR IMPLIED WARRANTIES, INCLUDING, BUT NOT LIMITED TO, THE
// IMPLIED WARRANTIES OF MERCHANTABILITY AND FITNESS FOR A PARTICULAR PURPOSE
// ARE DISCLAIMED. IN NO EVENT SHALL THE COPYRIGHT OWNER OR CONTRIBUTORS BE
// LIABLE FOR ANY DIRECT, INDIRECT, INCIDENTAL, SPECIAL, EXEMPLARY, OR
// CONSEQUENTIAL DAMAGES (INCLUDING, BUT NOT LIMITED TO, PROCUREMENT OF
// SUBSTITUTE GOODS OR SERVICES; LOSS OF USE, DATA, OR PROFITS; OR BUSINESS
// INTERRUPTION) HOWEVER CAUSED AND ON ANY THEORY OF LIABILITY, WHETHER IN
// CONTRACT, STRICT LIABILITY, OR TORT (INCLUDING NEGLIGENCE OR OTHERWISE)
// ARISING IN ANY WAY OUT OF THE USE OF THIS SOFTWARE, EVEN IF ADVISED OF THE
// POSSIBILITY OF SUCH DAMAGE.

// Dragonfly
//




vc_buf_size = 256;


wait_for_tail_credit = 0;

//
// Router architecture
//
vc_allocator = separable_input_first; 
sw_allocator = separable_input_first;
alloc_iters  = 1;

credit_delay   = 2;
routing_delay  = 0;
vc_alloc_delay = 1;
sw_alloc_delay = 1;
st_final_delay = 1;

input_speedup     = 1;
output_speedup    = 1;
internal_speedup  = 2.0;


warmup_periods = 3;
sim_count          = 1;

sample_period  = 10000;  


routing_function = dor;
num_vcs     = 2;

priority = none;
traffic       = uniform; 

injection_rate = 0.9;
packet_size = 1;
injection_rate_uses_flits = 1;

topology = mesh;

k  = 8;
n  = 2;

fer = 3;
ecc = link;

watch_out=-;
//watch_file = watch.txt;

ecc = link;

stats_out = examples/ecc_mesh88_config_1_0.900_link_3.m;

END Configuration File: examples/ecc_mesh88_config_1_0.900_link_3
1
Received nack credit for flit 39
Requeued flit 39
1
Received nack credit for flit 633
Requeued flit 633
3
3
2
Received nack credit for flit 611
Requeued flit 611
2
Received nack credit for flit 896
Requeued flit 896
Received nack credit for flit 1063
Requeued flit 1063
1
Received nack credit for flit 1388
Requeued flit 1388
3
Received nack credit for flit 1617
Requeued flit 1617
Received nack credit for flit 1432
Requeued flit 1432
1
Received nack credit for flit 2019
Requeued flit 2019
1
3
3
6
6
Received nack credit for flit 2259
Requeued flit 2259
5
4
Received nack credit for flit 1849
Requeued flit 1849
Received nack credit for flit 1234
Requeued flit 1234
Received nack credit for flit 942
Requeued flit 942
1
Received nack credit for flit 668
Requeued flit 668
Received nack credit for flit 1266
Requeued flit 1266
Received nack credit for flit 2412
Requeued flit 2412
2
Received nack credit for flit 2609
Requeued flit 2609
1
Received nack credit for flit 2810
Requeued flit 2810
1
3
Received nack credit for flit 4245
Requeued flit 4245
Received nack credit for flit 2733
Requeued flit 2733
3
Received nack credit for flit 2782
Requeued flit 2782
2
2
5
Received nack credit for flit 3645
Requeued flit 3645
Received nack credit for flit 3449
Requeued flit 3449
2
Received nack credit for flit 1971
Requeued flit 1971
Received nack credit for flit 5294
Requeued flit 5294
4
4
Received nack credit for flit 3333
Requeued flit 3333
Received nack credit for flit 4327
Requeued flit 4327
3
1
7
Received nack credit for flit 6528
Requeued flit 6528
Received nack credit for flit 7078
Requeued flit 7078
Received nack credit for flit 1871
Requeued flit 1871
3
Received nack credit for flit 5881
Requeued flit 5881
2
1
Received nack credit for flit 8118
Requeued flit 8118
1
1
Received nack credit for flit 8569
Requeued flit 8569
5
5
Received nack credit for flit 6315
Requeued flit 6315
Received nack credit for flit 6653
Requeued flit 6653
Received nack credit for flit 3320
Requeued flit 3320
Received nack credit for flit 7058
Requeued flit 7058
7
Received nack credit for flit 3321
Requeued flit 3321
1
2
Received nack credit for flit 10607
Requeued flit 10607
Received nack credit for flit 5637
Requeued flit 5637
2
Received nack credit for flit 5480
Requeued flit 5480
1
Received nack credit for flit 11439
Requeued flit 11439
7
Received nack credit for flit 4338
Requeued flit 4338
1
2
Received nack credit for flit 12622
Requeued flit 12622
2
Received nack credit for flit 6761
Requeued flit 6761
2
1
7
Received nack credit for flit 6425
Requeued flit 6425
Received nack credit for flit 9105
Requeued flit 9105
Received nack credit for flit 12911
Requeued flit 12911
8
Received nack credit for flit 5309
Requeued flit 5309
3
Received nack credit for flit 8382
Requeued flit 8382
Received nack credit for flit 6793
Requeued flit 6793
1
4
Received nack credit for flit 9814
Requeued flit 9814
Received nack credit for flit 9176
Requeued flit 9176
2
1
4
Received nack credit for flit 14100
Requeued flit 14100
Received nack credit for flit 14270
Requeued flit 14270
Received nack credit for flit 8952
Requeued flit 8952
3
Received nack credit for flit 14143
Requeued flit 14143
3
Received nack credit for flit 8740
Requeued flit 8740
1
1
Received nack credit for flit 16074
Requeued flit 16074
Received nack credit for flit 15254
Requeued flit 15254
2
4
Received nack credit for flit 12453
Requeued flit 12453
Received nack credit for flit 12370
Requeued flit 12370
1
1
Received nack credit for flit 12492
Requeued flit 12492
Received nack credit for flit 17831
Requeued flit 17831
1
Received nack credit for flit 18218
Requeued flit 18218
1
Received nack credit for flit 18586
Requeued flit 18586
3
1
1
3
Received nack credit for flit 12481
Requeued flit 12481
Received nack credit for flit 19039
Requeued flit 19039
Received nack credit for flit 18939
Requeued flit 18939
Received nack credit for flit 18357
Requeued flit 18357
6
Received nack credit for flit 11897
Requeued flit 11897
2
4
2
Received nack credit for flit 9802
Requeued flit 9802
Received nack credit for flit 11321
Requeued flit 11321
8
Received nack credit for flit 11904
Requeued flit 11904
Received nack credit for flit 4985
Requeued flit 4985
5
1
Received nack credit for flit 10643
Requeued flit 10643
1
Received nack credit for flit 20445
Requeued flit 20445
Received nack credit for flit 16464
Requeued flit 16464
1
7
Received nack credit for flit 19953
Requeued flit 19953
1
Received nack credit for flit 7709
Requeued flit 7709
Received nack credit for flit 20424
Requeued flit 20424
4
2
Received nack credit for flit 17657
Requeued flit 17657
1
Received nack credit for flit 15973
Requeued flit 15973
2
Received nack credit for flit 17591
Requeued flit 17591
1
5
Received nack credit for flit 17183
Requeued flit 17183
Received nack credit for flit 23131
Requeued flit 23131
3
Received nack credit for flit 8838
Requeued flit 8838
3
2
Received nack credit for flit 12994
Requeued flit 12994
Received nack credit for flit 22924
Requeued flit 22924
6
1
Received nack credit for flit 16928
Requeued flit 16928
Received nack credit for flit 11387
Requeued flit 11387
2
Received nack credit for flit 19133
Requeued flit 19133
Received nack credit for flit 13062
Requeued flit 13062
7
1
Received nack credit for flit 9682
Requeued flit 9682
1
Received nack credit for flit 24532
Requeued flit 24532
2
Received nack credit for flit 24826
Requeued flit 24826
Received nack credit for flit 18557
Requeued flit 18557
1
Received nack credit for flit 25747
Requeued flit 25747
2
2
Received nack credit for flit 24915
Requeued flit 24915
Received nack credit for flit 20905
Requeued flit 20905
4
1
4
5
1
Received nack credit for flit 14007
Requeued flit 14007
Received nack credit for flit 26860
Requeued flit 26860
Received nack credit for flit 11021
Requeued flit 11021
12
Received nack credit for flit 23517
Requeued flit 23517
Received nack credit for flit 19461
Requeued flit 19461
2
Received nack credit for flit 6277
Requeued flit 6277
Received nack credit for flit 20211
Requeued flit 20211
4
2
Received nack credit for flit 13587
Requeued flit 13587
5
1
Received nack credit for flit 14118
Requeued flit 14118
5
Received nack credit for flit 28270
Requeued flit 28270
Received nack credit for flit 24227
Requeued flit 24227
7
Received nack credit for flit 22171
Requeued flit 22171
3
1
1
Received nack credit for flit 15445
Requeued flit 15445
Received nack credit for flit 16527
Requeued flit 16527
6
Received nack credit for flit 28836
Requeued flit 28836
Received nack credit for flit 28675
Requeued flit 28675
1
Received nack credit for flit 11450
Requeued flit 11450
Received nack credit for flit 29281
Requeued flit 29281
1
5
Received nack credit for flit 21528
Requeued flit 21528
Received nack credit for flit 21413
Requeued flit 21413
2
2
3
1
Received nack credit for flit 16593
Requeued flit 16593
Received nack credit for flit 15610
Requeued flit 15610
Received nack credit for flit 24193
Requeued flit 24193
Received nack credit for flit 23726
Requeued flit 23726
1
Received nack credit for flit 24966
Requeued flit 24966
6
1
1
1
Received nack credit for flit 25489
Requeued flit 25489
Received nack credit for flit 32701
Requeued flit 32701
Received nack credit for flit 11726
Requeued flit 11726
1
Received nack credit for flit 32729
Requeued flit 32729
6
5
Received nack credit for flit 24315
Requeued flit 24315
Received nack credit for flit 12820
Requeued flit 12820
Received nack credit for flit 12659
Requeued flit 12659
1
2
1
Received nack credit for flit 25570
Requeued flit 25570
Received nack credit for flit 25106
Requeued flit 25106
Received nack credit for flit 24958
Requeued flit 24958
1
4
1
Received nack credit for flit 34228
Requeued flit 34228
2
Received nack credit for flit 17999
Requeued flit 17999
Received nack credit for flit 24887
Requeued flit 24887
Received nack credit for flit 33247
Requeued flit 33247
1
1
Received nack credit for flit 26143
Requeued flit 26143
Received nack credit for flit 35207
Requeued flit 35207
9
3
Received nack credit for flit 8467
Requeued flit 8467
Received nack credit for flit 32965
Requeued flit 32965
2
1
3
6
Received nack credit for flit 32128
Requeued flit 32128
Received nack credit for flit 26231
Requeued flit 26231
Received nack credit for flit 20935
Requeued flit 20935
Received nack credit for flit 34963
Requeued flit 34963
4
Received nack credit for flit 17379
Requeued flit 17379
1
1
Received nack credit for flit 37422
Requeued flit 37422
Received nack credit for flit 28455
Requeued flit 28455
3
2
Received nack credit for flit 28256
Requeued flit 28256
Received nack credit for flit 26185
Requeued flit 26185
1
Received nack credit for flit 31152
Requeued flit 31152
2
Received nack credit for flit 35817
Requeued flit 35817
2
1
2
Received nack credit for flit 39361
Requeued flit 39361
2
Received nack credit for flit 39602
Requeued flit 39602
6
Received nack credit for flit 29969
Requeued flit 29969
Received nack credit for flit 35861
Requeued flit 35861
1
Received nack credit for flit 21361
Requeued flit 21361
6
2
Received nack credit for flit 40164
Requeued flit 40164
1
Received nack credit for flit 29971
Requeued flit 29971
Received nack credit for flit 14424
Requeued flit 14424
1
2
Received nack credit for flit 40553
Requeued flit 40553
3
Received nack credit for flit 30805
Requeued flit 30805
Received nack credit for flit 37437
Requeued flit 37437
Received nack credit for flit 21343
Requeued flit 21343
2
3
Received nack credit for flit 23413
Requeued flit 23413
3
Received nack credit for flit 22814
Requeued flit 22814
Received nack credit for flit 27701
Requeued flit 27701
5
Received nack credit for flit 17490
Requeued flit 17490
1
4
3
Received nack credit for flit 31890
Requeued flit 31890
Received nack credit for flit 18987
Requeued flit 18987
3
Received nack credit for flit 42164
Requeued flit 42164
1
4
Received nack credit for flit 29624
Requeued flit 29624
1
1
1
Received nack credit for flit 40036
Requeued flit 40036
Received nack credit for flit 32905
Requeued flit 32905
Received nack credit for flit 45202
Requeued flit 45202
Received nack credit for flit 45341
Requeued flit 45341
Received nack credit for flit 45412
Requeued flit 45412
4
6
Received nack credit for flit 35841
Requeued flit 35841
Received nack credit for flit 20610
Requeued flit 20610
6
Received nack credit for flit 27381
Requeued flit 27381
6
2
Received nack credit for flit 19567
Requeued flit 19567
2
Received nack credit for flit 45364
Requeued flit 45364
Received nack credit for flit 26947
Requeued flit 26947
3
4
1
Received nack credit for flit 27036
Requeued flit 27036
4
Received nack credit for flit 38043
Requeued flit 38043
Received nack credit for flit 44205
Requeued flit 44205
7
Received nack credit for flit 25713
Requeued flit 25713
7
1
Received nack credit for flit 17532
Requeued flit 17532
1
Received nack credit for flit 18393
Requeued flit 18393
Received nack credit for flit 49150
Requeued flit 49150
Received nack credit for flit 49095
Requeued flit 49095
5
1
1
9
Received nack credit for flit 32153
Requeued flit 32153
4
Received nack credit for flit 45858
Requeued flit 45858
Received nack credit for flit 35798
Requeued flit 35798
Received nack credit for flit 22526
Requeued flit 22526
Received nack credit for flit 41516
Requeued flit 41516
6
4
3
Received nack credit for flit 40599
Requeued flit 40599
1
Received nack credit for flit 32829
Requeued flit 32829
Received nack credit for flit 41023
Requeued flit 41023
Received nack credit for flit 36778
Requeued flit 36778
6
Received nack credit for flit 32907
Requeued flit 32907
5
Received nack credit for flit 39553
Requeued flit 39553
1
1
Received nack credit for flit 52701
Requeued flit 52701
1
Received nack credit for flit 38376
Requeued flit 38376
Received nack credit for flit 53094
Requeued flit 53094
1
4
4
4
Received nack credit for flit 53545
Requeued flit 53545
Received nack credit for flit 37113
Requeued flit 37113
Received nack credit for flit 26934
Requeued flit 26934
Received nack credit for flit 21602
Requeued flit 21602
2
1
Received nack credit for flit 29482
Requeued flit 29482
Received nack credit for flit 40930
Requeued flit 40930
3
Received nack credit for flit 41970
Requeued flit 41970
4
2
Received nack credit for flit 31389
Requeued flit 31389
Received nack credit for flit 29616
Requeued flit 29616
1
2
Received nack credit for flit 53161
Requeued flit 53161
1
Received nack credit for flit 54137
Requeued flit 54137
4
Received nack credit for flit 57433
Requeued flit 57433
Received nack credit for flit 43675
Requeued flit 43675
1
3
Received nack credit for flit 41128
Requeued flit 41128
Received nack credit for flit 57947
Requeued flit 57947
3
Received nack credit for flit 30931
Requeued flit 30931
2
2
4
Received nack credit for flit 53427
Requeued flit 53427
Received nack credit for flit 32760
Requeued flit 32760
7
2
Received nack credit for flit 30873
Requeued flit 30873
Received nack credit for flit 36725
Requeued flit 36725
Received nack credit for flit 46589
Requeued flit 46589
7
6
5
Received nack credit for flit 19723
Requeued flit 19723
2
7
Received nack credit for flit 23958
Requeued flit 23958
Received nack credit for flit 45058
Requeued flit 45058
Received nack credit for flit 32903
Requeued flit 32903
Received nack credit for flit 45368
Requeued flit 45368
9
4
Received nack credit for flit 22152
Requeued flit 22152
2
Received nack credit for flit 56101
Requeued flit 56101
5
Received nack credit for flit 57008
Requeued flit 57008
Received nack credit for flit 23240
Requeued flit 23240
4
5
4
Received nack credit for flit 29022
Requeued flit 29022
Received nack credit for flit 57877
Requeued flit 57877
Received nack credit for flit 56740
Requeued flit 56740
4
7
8
Received nack credit for flit 29898
Requeued flit 29898
Received nack credit for flit 34340
Requeued flit 34340
Received nack credit for flit 21600
Requeued flit 21600
1
3
7
1
1
Received nack credit for flit 21620
Requeued flit 21620
Received nack credit for flit 46055
Requeued flit 46055
1
Received nack credit for flit 61155
Requeued flit 61155
Received nack credit for flit 64258
Requeued flit 64258
Received nack credit for flit 64688
Requeued flit 64688
6
Received nack credit for flit 47926
Requeued flit 47926
Received nack credit for flit 31841
Requeued flit 31841
6
1
4
2
Received nack credit for flit 42928
Requeued flit 42928
Received nack credit for flit 65558
Requeued flit 65558
Received nack credit for flit 48344
Requeued flit 48344
Received nack credit for flit 33014
Requeued flit 33014
4
Received nack credit for flit 28202
Requeued flit 28202
1
Received nack credit for flit 63337
Requeued flit 63337
10
Received nack credit for flit 25421
Requeued flit 25421
6
Received nack credit for flit 44334
Requeued flit 44334
1
Received nack credit for flit 48812
Requeued flit 48812
1
Received nack credit for flit 68611
Requeued flit 68611
5
Received nack credit for flit 39363
Requeued flit 39363
1
3
1
Received nack credit for flit 69410
Requeued flit 69410
Received nack credit for flit 36402
Requeued flit 36402
Received nack credit for flit 69582
Requeued flit 69582
2
1
4
Received nack credit for flit 51320
Requeued flit 51320
Received nack credit for flit 50156
Requeued flit 50156
Received nack credit for flit 53657
Requeued flit 53657
2
3
1
Received nack credit for flit 45314
Requeued flit 45314
1
Received nack credit for flit 36950
Requeued flit 36950
Received nack credit for flit 50901
Requeued flit 50901
3
Received nack credit for flit 70351
Requeued flit 70351
Received nack credit for flit 37185
Requeued flit 37185
2
1
Received nack credit for flit 51481
Requeued flit 51481
1
1
Received nack credit for flit 65719
Requeued flit 65719
3
Received nack credit for flit 71849
Requeued flit 71849
Received nack credit for flit 66330
Requeued flit 66330
1
5
Received nack credit for flit 69802
Requeued flit 69802
Received nack credit for flit 52578
Requeued flit 52578
Received nack credit for flit 26873
Requeued flit 26873
1
Received nack credit for flit 72498
Requeued flit 72498
1
2
Received nack credit for flit 64740
Requeued flit 64740
1
Received nack credit for flit 53131
Requeued flit 53131
Received nack credit for flit 73139
Requeued flit 73139
1
3
Received nack credit for flit 52914
Requeued flit 52914
Received nack credit for flit 74215
Requeued flit 74215
1
9
1
Received nack credit for flit 74825
Requeued flit 74825
2
Received nack credit for flit 28978
Requeued flit 28978
Received nack credit for flit 56032
Requeued flit 56032
4
5
Received nack credit for flit 38950
Requeued flit 38950
Received nack credit for flit 62590
Requeued flit 62590
Received nack credit for flit 53412
Requeued flit 53412
5
3
5
4
Received nack credit for flit 53760
Requeued flit 53760
2
Received nack credit for flit 48123
Requeued flit 48123
2
Received nack credit for flit 27636
Requeued flit 27636
Received nack credit for flit 60763
Requeued flit 60763
Received nack credit for flit 56291
Requeued flit 56291
Received nack credit for flit 48720
Requeued flit 48720
1
2
6
Received nack credit for flit 76911
Requeued flit 76911
1
1
Received nack credit for flit 62177
Requeued flit 62177
Received nack credit for flit 30471
Requeued flit 30471
Received nack credit for flit 54925
Requeued flit 54925
2
Received nack credit for flit 77322
Requeued flit 77322
Received nack credit for flit 76769
Requeued flit 76769
5
Received nack credit for flit 62863
Requeued flit 62863
1
2
Received nack credit for flit 55489
Requeued flit 55489
Received nack credit for flit 41716
Requeued flit 41716
5
5
Received nack credit for flit 28719
Requeued flit 28719
Received nack credit for flit 72021
Requeued flit 72021
1
Received nack credit for flit 79676
Requeued flit 79676
1
1
Received nack credit for flit 78833
Requeued flit 78833
1
2
4
Received nack credit for flit 59664
Requeued flit 59664
5
4
Received nack credit for flit 51834
Requeued flit 51834
Received nack credit for flit 80459
Requeued flit 80459
Received nack credit for flit 75645
Requeued flit 75645
Received nack credit for flit 62302
Requeued flit 62302
Received nack credit for flit 42622
Requeued flit 42622
1
2
Received nack credit for flit 81021
Requeued flit 81021
2
3
Received nack credit for flit 60575
Requeued flit 60575
Received nack credit for flit 81016
Requeued flit 81016
Received nack credit for flit 75889
Requeued flit 75889
5
1
1
4
Received nack credit for flit 43943
Requeued flit 43943
Received nack credit for flit 80121
Requeued flit 80121
Received nack credit for flit 61664
Requeued flit 61664
4
Received nack credit for flit 69436
Requeued flit 69436
Received nack credit for flit 35936
Requeued flit 35936
3
3
Received nack credit for flit 44159
Requeued flit 44159
4
Received nack credit for flit 61467
Requeued flit 61467
2
Received nack credit for flit 37040
Requeued flit 37040
1
1
Received nack credit for flit 73787
Requeued flit 73787
Received nack credit for flit 60407
Requeued flit 60407
Received nack credit for flit 61841
Requeued flit 61841
1
Received nack credit for flit 59466
Requeued flit 59466
2
1
8
Received nack credit for flit 46016
Requeued flit 46016
1
Received nack credit for flit 84989
Requeued flit 84989
Received nack credit for flit 53031
Requeued flit 53031
Received nack credit for flit 78760
Requeued flit 78760
1
8
7
Received nack credit for flit 64989
Requeued flit 64989
2
1
Received nack credit for flit 31997
Requeued flit 31997
Received nack credit for flit 58066
Requeued flit 58066
Received nack credit for flit 80853
Requeued flit 80853
3
Received nack credit for flit 86846
Requeued flit 86846
Received nack credit for flit 37095
Requeued flit 37095
2
Received nack credit for flit 66194
Requeued flit 66194
3
Received nack credit for flit 65787
Requeued flit 65787
6
1
Received nack credit for flit 33801
Requeued flit 33801
1
Received nack credit for flit 63793
Requeued flit 63793
1
Received nack credit for flit 63968
Requeued flit 63968
4
Received nack credit for flit 66852
Requeued flit 66852
2
2
8
Received nack credit for flit 82744
Requeued flit 82744
Received nack credit for flit 64009
Requeued flit 64009
Received nack credit for flit 65932
Requeued flit 65932
7
Received nack credit for flit 34334
Requeued flit 34334
6
Received nack credit for flit 35891
Requeued flit 35891
Received nack credit for flit 47283
Requeued flit 47283
1
Received nack credit for flit 72463
Requeued flit 72463
2
Received nack credit for flit 66540
Requeued flit 66540
6
Received nack credit for flit 36350
Requeued flit 36350
1
5
Received nack credit for flit 67355
Requeued flit 67355
Received nack credit for flit 47919
Requeued flit 47919
5
1
3
Received nack credit for flit 36068
Requeued flit 36068
2
Received nack credit for flit 88768
Requeued flit 88768
Received nack credit for flit 48126
Requeued flit 48126
Received nack credit for flit 48464
Requeued flit 48464
2
7
1
Received nack credit for flit 49626
Requeued flit 49626
Received nack credit for flit 30456
Requeued flit 30456
3
Received nack credit for flit 93334
Requeued flit 93334
Received nack credit for flit 38767
Requeued flit 38767
6
3
Received nack credit for flit 43234
Requeued flit 43234
Received nack credit for flit 85836
Requeued flit 85836
1
3
3
Received nack credit for flit 67409
Requeued flit 67409
Received nack credit for flit 75579
Requeued flit 75579
Received nack credit for flit 88050
Requeued flit 88050
1
2
Received nack credit for flit 75697
Requeued flit 75697
7
1
Received nack credit for flit 70026
Requeued flit 70026
Received nack credit for flit 36094
Requeued flit 36094
3
Received nack credit for flit 89344
Requeued flit 89344
3
Received nack credit for flit 52330
Requeued flit 52330
Received nack credit for flit 49679
Requeued flit 49679
5
Received nack credit for flit 61576
Requeued flit 61576
1
3
Received nack credit for flit 74166
Requeued flit 74166
Received nack credit for flit 68364
Requeued flit 68364
3
Received nack credit for flit 53900
Requeued flit 53900
1
Received nack credit for flit 70001
Requeued flit 70001
1
3
Received nack credit for flit 78927
Requeued flit 78927
Received nack credit for flit 51245
Requeued flit 51245
3
Received nack credit for flit 78179
Requeued flit 78179
1
1
Received nack credit for flit 71601
Requeued flit 71601
Received nack credit for flit 96508
Requeued flit 96508
1
3
Received nack credit for flit 93482
Requeued flit 93482
Received nack credit for flit 73749
Requeued flit 73749
2
3
9
Received nack credit for flit 77264
Requeued flit 77264
Received nack credit for flit 27967
Requeued flit 27967
Received nack credit for flit 90432
Requeued flit 90432
2
1
Received nack credit for flit 75846
Requeued flit 75846
Received nack credit for flit 102322
Requeued flit 102322
7
1
Received nack credit for flit 62073
Requeued flit 62073
Received nack credit for flit 74130
Requeued flit 74130
1
Received nack credit for flit 75836
Requeued flit 75836
2
1
Received nack credit for flit 52590
Requeued flit 52590
1
Received nack credit for flit 83551
Requeued flit 83551
4
1
Received nack credit for flit 74590
Requeued flit 74590
Received nack credit for flit 41398
Requeued flit 41398
Received nack credit for flit 100759
Requeued flit 100759
5
Received nack credit for flit 76520
Requeued flit 76520
6
Received nack credit for flit 68256
Requeued flit 68256
7
3
7
Received nack credit for flit 42997
Requeued flit 42997
Received nack credit for flit 67151
Requeued flit 67151
2
Received nack credit for flit 28596
Requeued flit 28596
1
3
Received nack credit for flit 77468
Requeued flit 77468
Received nack credit for flit 106326
Requeued flit 106326
Received nack credit for flit 61680
Requeued flit 61680
1
Received nack credit for flit 103058
Requeued flit 103058
1
6
Received nack credit for flit 106783
Requeued flit 106783
Received nack credit for flit 53986
Requeued flit 53986
2
2
Received nack credit for flit 76372
Requeued flit 76372
3
Received nack credit for flit 56120
Requeued flit 56120
2
Received nack credit for flit 90440
Requeued flit 90440
Received nack credit for flit 80739
Requeued flit 80739
4
1
Received nack credit for flit 43583
Requeued flit 43583
Received nack credit for flit 86462
Requeued flit 86462
2
Received nack credit for flit 81358
Requeued flit 81358
1
Received nack credit for flit 79568
Requeued flit 79568
2
7
1
Received nack credit for flit 62706
Requeued flit 62706
Received nack credit for flit 44153
Requeued flit 44153
Received nack credit for flit 83193
Requeued flit 83193
8
Received nack credit for flit 40842
Requeued flit 40842
6
Received nack credit for flit 79982
Requeued flit 79982
3
Received nack credit for flit 103856
Requeued flit 103856
2
Received nack credit for flit 112371
Requeued flit 112371
1
5
Received nack credit for flit 84726
Requeued flit 84726
Received nack credit for flit 50917
Requeued flit 50917
1
1
Received nack credit for flit 104307
Requeued flit 104307
Received nack credit for flit 83981
Requeued flit 83981
2
7
Received nack credit for flit 82616
Requeued flit 82616
Received nack credit for flit 100359
Requeued flit 100359
1
1
Received nack credit for flit 83149
Requeued flit 83149
Received nack credit for flit 91571
Requeued flit 91571
1
1
6
6
4
Received nack credit for flit 115269
Requeued flit 115269
5
Received nack credit for flit 115158
Requeued flit 115158
1
Received nack credit for flit 68074
Requeued flit 68074
Received nack credit for flit 43248
Requeued flit 43248
Received nack credit for flit 61043
Requeued flit 61043
8
Received nack credit for flit 85149
Requeued flit 85149
Received nack credit for flit 61054
Requeued flit 61054
Received nack credit for flit 71653
Requeued flit 71653
1
3
Received nack credit for flit 84203
Requeued flit 84203
Received nack credit for flit 63103
Requeued flit 63103
4
9
3
Received nack credit for flit 103917
Requeued flit 103917
Received nack credit for flit 79333
Requeued flit 79333
Received nack credit for flit 81358
Requeued flit 81358
1
Received nack credit for flit 105410
Requeued flit 105410
5
1
Received nack credit for flit 97987
Requeued flit 97987
4
Received nack credit for flit 110382
Requeued flit 110382
Received nack credit for flit 46388
Requeued flit 46388
1
12
Received nack credit for flit 86988
Requeued flit 86988
5
Received nack credit for flit 43282
Requeued flit 43282
Received nack credit for flit 76432
Requeued flit 76432
1
Received nack credit for flit 91736
Requeued flit 91736
8
2
Received nack credit for flit 43156
Requeued flit 43156
Received nack credit for flit 93167
Requeued flit 93167
3
5
Received nack credit for flit 100446
Requeued flit 100446
Received nack credit for flit 74351
Requeued flit 74351
4
3
4
Received nack credit for flit 48457
Requeued flit 48457
Received nack credit for flit 62155
Requeued flit 62155
2
1
Received nack credit for flit 89315
Requeued flit 89315
5
1
Received nack credit for flit 102653
Requeued flit 102653
Received nack credit for flit 112742
Requeued flit 112742
Received nack credit for flit 55400
Requeued flit 55400
Received nack credit for flit 121861
Requeued flit 121861
2
1
Received nack credit for flit 61245
Requeued flit 61245
1
Received nack credit for flit 97640
Requeued flit 97640
3
1
Received nack credit for flit 93564
Requeued flit 93564
Received nack credit for flit 113750
Requeued flit 113750
Received nack credit for flit 77765
Requeued flit 77765
1
4
3
Received nack credit for flit 101644
Requeued flit 101644
Received nack credit for flit 91404
Requeued flit 91404
Received nack credit for flit 54229
Requeued flit 54229
2
Received nack credit for flit 72290
Requeued flit 72290
1
6
Received nack credit for flit 92502
Requeued flit 92502
Received nack credit for flit 42562
Requeued flit 42562
1
Received nack credit for flit 97408
Requeued flit 97408
7
Received nack credit for flit 87572
Requeued flit 87572
1
Received nack credit for flit 125260
Requeued flit 125260
6
8
5
Received nack credit for flit 56275
Requeued flit 56275
Received nack credit for flit 67396
Requeued flit 67396
Received nack credit for flit 63268
Requeued flit 63268
5
1
5
Received nack credit for flit 47033
Requeued flit 47033
Received nack credit for flit 101625
Requeued flit 101625
Received nack credit for flit 81427
Requeued flit 81427
1
Received nack credit for flit 118563
Requeued flit 118563
1
8
5
Received nack credit for flit 117038
Requeued flit 117038
Received nack credit for flit 46358
Requeued flit 46358
Received nack credit for flit 89263
Requeued flit 89263
1
9
Received nack credit for flit 102520
Requeued flit 102520
Received nack credit for flit 43454
Requeued flit 43454
1
Received nack credit for flit 93433
Requeued flit 93433
1
Received nack credit for flit 100477
Requeued flit 100477
4
6
1
Received nack credit for flit 63921
Requeued flit 63921
Received nack credit for flit 57134
Requeued flit 57134
Received nack credit for flit 129910
Requeued flit 129910
1
1
3
1
1
Received nack credit for flit 102428
Requeued flit 102428
Received nack credit for flit 100050
Requeued flit 100050
Received nack credit for flit 130423
Requeued flit 130423
1
Received nack credit for flit 118334
Requeued flit 118334
7
Received nack credit for flit 129164
Requeued flit 129164
Received nack credit for flit 82192
Requeued flit 82192
Received nack credit for flit 121100
Requeued flit 121100
1
4
5
Received nack credit for flit 131484
Requeued flit 131484
Received nack credit for flit 54919
Requeued flit 54919
5
Received nack credit for flit 70903
Requeued flit 70903
4
Received nack credit for flit 50675
Requeued flit 50675
Received nack credit for flit 51329
Requeued flit 51329
4
4
2
Received nack credit for flit 50076
Requeued flit 50076
Received nack credit for flit 84377
Requeued flit 84377
Received nack credit for flit 119024
Requeued flit 119024
9
1
Received nack credit for flit 51885
Requeued flit 51885
3
5
Received nack credit for flit 98722
Requeued flit 98722
Received nack credit for flit 74380
Requeued flit 74380
1
1
Received nack credit for flit 70590
Requeued flit 70590
Received nack credit for flit 133599
Requeued flit 133599
9
Received nack credit for flit 119459
Requeued flit 119459
Received nack credit for flit 52976
Requeued flit 52976
2
Received nack credit for flit 122467
Requeued flit 122467
4
7
Received nack credit for flit 77513
Requeued flit 77513
Received nack credit for flit 99553
Requeued flit 99553
6
1
Received nack credit for flit 54613
Requeued flit 54613
Received nack credit for flit 99840
Requeued flit 99840
1
1
Received nack credit for flit 136034
Requeued flit 136034
Received nack credit for flit 102827
Requeued flit 102827
1
Received nack credit for flit 104604
Requeued flit 104604
6
Received nack credit for flit 67114
Requeued flit 67114
4
6
1
Received nack credit for flit 93181
Requeued flit 93181
10
Received nack credit for flit 95202
Requeued flit 95202
Received nack credit for flit 109362
Requeued flit 109362
1
Received nack credit for flit 62699
Requeued flit 62699
1
Received nack credit for flit 104026
Requeued flit 104026
Received nack credit for flit 137545
Requeued flit 137545
1
4
2
Received nack credit for flit 105295
Requeued flit 105295
Received nack credit for flit 55838
Requeued flit 55838
Received nack credit for flit 70776
Requeued flit 70776
3
4
2
Received nack credit for flit 74170
Requeued flit 74170
5
1
Received nack credit for flit 80832
Requeued flit 80832
Received nack credit for flit 112485
Requeued flit 112485
Received nack credit for flit 52128
Requeued flit 52128
Received nack credit for flit 102144
Requeued flit 102144
11
4
Received nack credit for flit 45340
Requeued flit 45340
3
Received nack credit for flit 102667
Requeued flit 102667
Received nack credit for flit 129403
Requeued flit 129403
4
Received nack credit for flit 101640
Requeued flit 101640
4
1
1
Received nack credit for flit 111110
Requeued flit 111110
Received nack credit for flit 138297
Requeued flit 138297
Received nack credit for flit 140255
Requeued flit 140255
1
Received nack credit for flit 101008
Requeued flit 101008
1
2
Received nack credit for flit 139384
Requeued flit 139384
Received nack credit for flit 81817
Requeued flit 81817
1
Received nack credit for flit 107591
Requeued flit 107591
1
5
Received nack credit for flit 140224
Requeued flit 140224
2
Received nack credit for flit 73452
Requeued flit 73452
Received nack credit for flit 103743
Requeued flit 103743
1
Received nack credit for flit 115198
Requeued flit 115198
1
1
2
Received nack credit for flit 134164
Requeued flit 134164
Received nack credit for flit 141971
Requeued flit 141971
Received nack credit for flit 100320
Requeued flit 100320
2
5
3
3
1
Received nack credit for flit 113410
Requeued flit 113410
Received nack credit for flit 134630
Requeued flit 134630
Received nack credit for flit 127774
Requeued flit 127774
3
Received nack credit for flit 77149
Requeued flit 77149
Received nack credit for flit 109150
Requeued flit 109150
4
Received nack credit for flit 78558
Requeued flit 78558
Received nack credit for flit 93512
Requeued flit 93512
1
1
Received nack credit for flit 109734
Requeued flit 109734
4
Received nack credit for flit 107151
Requeued flit 107151
Received nack credit for flit 69537
Requeued flit 69537
7
3
Received nack credit for flit 80799
Requeued flit 80799
1
1
Received nack credit for flit 79833
Requeued flit 79833
Received nack credit for flit 136370
Requeued flit 136370
2
Received nack credit for flit 105895
Requeued flit 105895
Received nack credit for flit 75046
Requeued flit 75046
1
1
Received nack credit for flit 120005
Requeued flit 120005
Received nack credit for flit 120358
Requeued flit 120358
1
Received nack credit for flit 142559
Requeued flit 142559
4
Received nack credit for flit 60366
Requeued flit 60366
2
2
1
Received nack credit for flit 130866
Requeued flit 130866
Received nack credit for flit 113475
Requeued flit 113475
Received nack credit for flit 121596
Requeued flit 121596
7
4
5
5
6
Received nack credit for flit 55182
Requeued flit 55182
Received nack credit for flit 111268
Requeued flit 111268
Received nack credit for flit 72413
Requeued flit 72413
Received nack credit for flit 75248
Requeued flit 75248
5
Received nack credit for flit 58614
Requeued flit 58614
Received nack credit for flit 101328
Requeued flit 101328
4
5
Received nack credit for flit 122978
Requeued flit 122978
Received nack credit for flit 82618
Requeued flit 82618
1
3
1
Received nack credit for flit 149636
Requeued flit 149636
1
Received nack credit for flit 62880
Requeued flit 62880
Received nack credit for flit 140688
Requeued flit 140688
Received nack credit for flit 134696
Requeued flit 134696
8
1
Received nack credit for flit 59131
Requeued flit 59131
Received nack credit for flit 109623
Requeued flit 109623
3
Received nack credit for flit 81762
Requeued flit 81762
1
2
Received nack credit for flit 141851
Requeued flit 141851
Received nack credit for flit 91776
Requeued flit 91776
1
2
Received nack credit for flit 130413
Requeued flit 130413
1
1
5
Received nack credit for flit 88220
Requeued flit 88220
Received nack credit for flit 126488
Requeued flit 126488
Received nack credit for flit 86381
Requeued flit 86381
13
Received nack credit for flit 46715
Requeued flit 46715
5
3
1
Received nack credit for flit 116078
Requeued flit 116078
Received nack credit for flit 144310
Requeued flit 144310
3
Received nack credit for flit 141440
Requeued flit 141440
7
1
9
5
Received nack credit for flit 116645
Requeued flit 116645
1
Received nack credit for flit 120288
Requeued flit 120288
4
Received nack credit for flit 57813
Requeued flit 57813
Received nack credit for flit 116999
Requeued flit 116999
Received nack credit for flit 121672
Requeued flit 121672
Received nack credit for flit 60233
Requeued flit 60233
Received nack credit for flit 118020
Requeued flit 118020
5
5
2
Received nack credit for flit 129826
Requeued flit 129826
Received nack credit for flit 115369
Requeued flit 115369
7
Received nack credit for flit 89589
Requeued flit 89589
Received nack credit for flit 54151
Requeued flit 54151
2
1
3
Received nack credit for flit 92431
Requeued flit 92431
1
Received nack credit for flit 114214
Requeued flit 114214
3
Received nack credit for flit 155514
Requeued flit 155514
Received nack credit for flit 143872
Requeued flit 143872
Received nack credit for flit 100928
Requeued flit 100928
1
1
8
Received nack credit for flit 107296
Requeued flit 107296
Received nack credit for flit 144181
Requeued flit 144181
1
Received nack credit for flit 102822
Requeued flit 102822
Received nack credit for flit 141511
Requeued flit 141511
4
2
Received nack credit for flit 92016
Requeued flit 92016
Received nack credit for flit 98434
Requeued flit 98434
1
1
Received nack credit for flit 133502
Requeued flit 133502
1
Received nack credit for flit 132294
Requeued flit 132294
1
Received nack credit for flit 148105
Requeued flit 148105
Received nack credit for flit 134268
Requeued flit 134268
4
2
2
3
3
Received nack credit for flit 59423
Requeued flit 59423
Received nack credit for flit 94125
Requeued flit 94125
Received nack credit for flit 139174
Requeued flit 139174
3
Received nack credit for flit 148586
Requeued flit 148586
Received nack credit for flit 121268
Requeued flit 121268
Received nack credit for flit 99529
Requeued flit 99529
2
Received nack credit for flit 82406
Requeued flit 82406
5
Received nack credit for flit 70795
Requeued flit 70795
1
Received nack credit for flit 108893
Requeued flit 108893
1
8
3
Received nack credit for flit 135829
Requeued flit 135829
Received nack credit for flit 63465
Requeued flit 63465
Received nack credit for flit 101204
Requeued flit 101204
5
2
Received nack credit for flit 60285
Requeued flit 60285
1
Received nack credit for flit 158365
Requeued flit 158365
1
Received nack credit for flit 150434
Requeued flit 150434
2
Received nack credit for flit 126652
Requeued flit 126652
2
Received nack credit for flit 85125
Requeued flit 85125
5
Received nack credit for flit 161714
Requeued flit 161714
Received nack credit for flit 62710
Requeued flit 62710
1
8
1
3
Received nack credit for flit 131459
Requeued flit 131459
Received nack credit for flit 59306
Requeued flit 59306
Received nack credit for flit 138301
Requeued flit 138301
3
Received nack credit for flit 92672
Requeued flit 92672
4
6
Received nack credit for flit 89672
Requeued flit 89672
Received nack credit for flit 91172
Requeued flit 91172
Received nack credit for flit 74898
Requeued flit 74898
4
1
Received nack credit for flit 91208
Requeued flit 91208
Received nack credit for flit 154162
Requeued flit 154162
7
Received nack credit for flit 117770
Requeued flit 117770
1
3
Received nack credit for flit 144779
Requeued flit 144779
Received nack credit for flit 84697
Requeued flit 84697
10
Received nack credit for flit 97720
Requeued flit 97720
2
Received nack credit for flit 148025
Requeued flit 148025
2
3
9
Received nack credit for flit 129755
Requeued flit 129755
6
1
7
Received nack credit for flit 101679
Requeued flit 101679
Received nack credit for flit 69106
Requeued flit 69106
Received nack credit for flit 69015
Requeued flit 69015
Received nack credit for flit 158586
Requeued flit 158586
Received nack credit for flit 108212
Requeued flit 108212
2
Received nack credit for flit 116734
Requeued flit 116734
1
9
9
1
Received nack credit for flit 111661
Requeued flit 111661
Received nack credit for flit 115729
Requeued flit 115729
Received nack credit for flit 117612
Requeued flit 117612
2
3
1
2
Received nack credit for flit 88342
Requeued flit 88342
Received nack credit for flit 66568
Requeued flit 66568
Received nack credit for flit 142730
Requeued flit 142730
Received nack credit for flit 131033
Requeued flit 131033
1
Received nack credit for flit 112292
Requeued flit 112292
2
1
Received nack credit for flit 132439
Requeued flit 132439
7
5
Received nack credit for flit 135384
Requeued flit 135384
Received nack credit for flit 107381
Requeued flit 107381
1
Received nack credit for flit 115070
Requeued flit 115070
Received nack credit for flit 137934
Requeued flit 137934
2
2
Received nack credit for flit 122015
Requeued flit 122015
Received nack credit for flit 132296
Requeued flit 132296
5
Received nack credit for flit 65278
Requeued flit 65278
6
4
Received nack credit for flit 96964
Requeued flit 96964
6
Received nack credit for flit 112277
Requeued flit 112277
Received nack credit for flit 140337
Requeued flit 140337
8
1
Received nack credit for flit 62024
Requeued flit 62024
1
Received nack credit for flit 143459
Requeued flit 143459
10
Received nack credit for flit 162135
Requeued flit 162135
Received nack credit for flit 75818
Requeued flit 75818
4
Received nack credit for flit 67771
Requeued flit 67771
9
4
Received nack credit for flit 61051
Requeued flit 61051
8
3
1
Received nack credit for flit 137462
Requeued flit 137462
1
3
Received nack credit for flit 58740
Requeued flit 58740
Received nack credit for flit 141197
Requeued flit 141197
Received nack credit for flit 173395
Requeued flit 173395
1
Received nack credit for flit 144123
Requeued flit 144123
Received nack credit for flit 147083
Requeued flit 147083
Received nack credit for flit 151997
Requeued flit 151997
5
4
Received nack credit for flit 138148
Requeued flit 138148
Received nack credit for flit 96083
Requeued flit 96083
7
1
Received nack credit for flit 108986
Requeued flit 108986
1
Received nack credit for flit 120495
Requeued flit 120495
Received nack credit for flit 165739
Requeued flit 165739
7
Received nack credit for flit 113841
Requeued flit 113841
6
3
1
2
Received nack credit for flit 101631
Requeued flit 101631
Received nack credit for flit 127961
Requeued flit 127961
Received nack credit for flit 143071
Requeued flit 143071
Received nack credit for flit 140717
Requeued flit 140717
3
1
2
Received nack credit for flit 147302
Requeued flit 147302
Received nack credit for flit 122092
Requeued flit 122092
Received nack credit for flit 150203
Requeued flit 150203
1
1
Received nack credit for flit 163205
Requeued flit 163205
Received nack credit for flit 169006
Requeued flit 169006
5
2
5
6
Received nack credit for flit 71758
Requeued flit 71758
2
Received nack credit for flit 90372
Requeued flit 90372
Received nack credit for flit 137249
Requeued flit 137249
7
Received nack credit for flit 100580
Requeued flit 100580
Received nack credit for flit 117011
Requeued flit 117011
Received nack credit for flit 133598
Requeued flit 133598
7
Received nack credit for flit 75025
Requeued flit 75025
7
1
1
Received nack credit for flit 72011
Requeued flit 72011
Received nack credit for flit 169979
Requeued flit 169979
Received nack credit for flit 154510
Requeued flit 154510
3
4
Received nack credit for flit 148093
Requeued flit 148093
Received nack credit for flit 167553
Requeued flit 167553
2
1
Received nack credit for flit 141508
Requeued flit 141508
Received nack credit for flit 114219
Requeued flit 114219
2
2
Received nack credit for flit 156348
Requeued flit 156348
1
9
5
Received nack credit for flit 95983
Requeued flit 95983
Received nack credit for flit 155196
Requeued flit 155196
Received nack credit for flit 88435
Requeued flit 88435
2
1
Received nack credit for flit 75534
Requeued flit 75534
Received nack credit for flit 118028
Requeued flit 118028
Received nack credit for flit 151168
Requeued flit 151168
6
Received nack credit for flit 102747
Requeued flit 102747
1
Received nack credit for flit 157723
Requeued flit 157723
1
3
Received nack credit for flit 156265
Requeued flit 156265
1
Received nack credit for flit 61245
Requeued flit 61245
1
1
Received nack credit for flit 122093
Requeued flit 122093
2
6
Received nack credit for flit 147053
Requeued flit 147053
1
Received nack credit for flit 154226
Requeued flit 154226
Received nack credit for flit 98042
Requeued flit 98042
Received nack credit for flit 172134
Requeued flit 172134
Received nack credit for flit 105250
Requeued flit 105250
1
3
6
Received nack credit for flit 125131
Requeued flit 125131
Received nack credit for flit 145933
Requeued flit 145933
Received nack credit for flit 140351
Requeued flit 140351
4
1
3
Received nack credit for flit 153231
Requeued flit 153231
Received nack credit for flit 103004
Requeued flit 103004
Received nack credit for flit 103496
Requeued flit 103496
3
4
2
1
2
Received nack credit for flit 146886
Requeued flit 146886
Received nack credit for flit 106969
Requeued flit 106969
Received nack credit for flit 170024
Requeued flit 170024
Received nack credit for flit 113106
Requeued flit 113106
Received nack credit for flit 151522
Requeued flit 151522
1
Received nack credit for flit 152134
Requeued flit 152134
2
Received nack credit for flit 166823
Requeued flit 166823
1
Received nack credit for flit 152455
Requeued flit 152455
1
3
4
Received nack credit for flit 151502
Requeued flit 151502
Received nack credit for flit 145981
Requeued flit 145981
Received nack credit for flit 82764
Requeued flit 82764
8
7
1
Received nack credit for flit 130530
Requeued flit 130530
Received nack credit for flit 77774
Requeued flit 77774
1
Received nack credit for flit 125688
Requeued flit 125688
Received nack credit for flit 155125
Requeued flit 155125
1
7
4
Received nack credit for flit 174938
Requeued flit 174938
Received nack credit for flit 152676
Requeued flit 152676
5
Received nack credit for flit 73196
Requeued flit 73196
Received nack credit for flit 112603
Requeued flit 112603
6
Received nack credit for flit 73928
Requeued flit 73928
2
1
Received nack credit for flit 118495
Requeued flit 118495
1
Received nack credit for flit 153908
Requeued flit 153908
Received nack credit for flit 164579
Requeued flit 164579
2
Received nack credit for flit 150051
Requeued flit 150051
2
6
Received nack credit for flit 101023
Requeued flit 101023
7
Received nack credit for flit 79149
Requeued flit 79149
4
Received nack credit for flit 131543
Requeued flit 131543
Received nack credit for flit 80202
Requeued flit 80202
3
6
2
Received nack credit for flit 70693
Requeued flit 70693
Received nack credit for flit 153455
Requeued flit 153455
Received nack credit for flit 178356
Requeued flit 178356
3
Received nack credit for flit 100960
Requeued flit 100960
8
6
1
Received nack credit for flit 96133
Requeued flit 96133
Received nack credit for flit 71092
Requeued flit 71092
Received nack credit for flit 121421
Requeued flit 121421
1
2
Received nack credit for flit 154100
Requeued flit 154100
Received nack credit for flit 157498
Requeued flit 157498
4
1
Received nack credit for flit 153823
Requeued flit 153823
Received nack credit for flit 126899
Requeued flit 126899
1
1
4
6
Received nack credit for flit 168967
Requeued flit 168967
3
Received nack credit for flit 156424
Requeued flit 156424
Received nack credit for flit 112268
Requeued flit 112268
Received nack credit for flit 67945
Requeued flit 67945
Received nack credit for flit 157641
Requeued flit 157641
4
Received nack credit for flit 79859
Requeued flit 79859
6
Received nack credit for flit 149986
Requeued flit 149986
9
4
Received nack credit for flit 95207
Requeued flit 95207
Received nack credit for flit 160160
Requeued flit 160160
4
Received nack credit for flit 162708
Requeued flit 162708
1
Received nack credit for flit 159805
Requeued flit 159805
3
1
2
Received nack credit for flit 161769
Requeued flit 161769
Received nack credit for flit 129350
Requeued flit 129350
Received nack credit for flit 160987
Requeued flit 160987
6
Received nack credit for flit 158326
Requeued flit 158326
2
8
Received nack credit for flit 161862
Requeued flit 161862
Received nack credit for flit 72990
Requeued flit 72990
3
1
Received nack credit for flit 105843
Requeued flit 105843
Received nack credit for flit 125198
Requeued flit 125198
1
1
1
Received nack credit for flit 176207
Requeued flit 176207
Received nack credit for flit 125146
Requeued flit 125146
Received nack credit for flit 175536
Requeued flit 175536
4
1
3
Received nack credit for flit 161474
Requeued flit 161474
Received nack credit for flit 181777
Requeued flit 181777
Received nack credit for flit 85162
Requeued flit 85162
1
2
Received nack credit for flit 174157
Requeued flit 174157
Received nack credit for flit 163792
Requeued flit 163792
1
Received nack credit for flit 161293
Requeued flit 161293
4
3
Received nack credit for flit 81568
Requeued flit 81568
Received nack credit for flit 184139
Requeued flit 184139
1
Received nack credit for flit 160296
Requeued flit 160296
1
5
Received nack credit for flit 178646
Requeued flit 178646
Received nack credit for flit 168593
Requeued flit 168593
4
Received nack credit for flit 124947
Requeued flit 124947
1
6
Received nack credit for flit 127879
Requeued flit 127879
Received nack credit for flit 121923
Requeued flit 121923
1
1
Received nack credit for flit 194924
Requeued flit 194924
Received nack credit for flit 186600
Requeued flit 186600
3
Received nack credit for flit 187061
Requeued flit 187061
1
Received nack credit for flit 179903
Requeued flit 179903
6
3
2
Received nack credit for flit 108652
Requeued flit 108652
Received nack credit for flit 160467
Requeued flit 160467
Received nack credit for flit 148423
Requeued flit 148423
2
Received nack credit for flit 130632
Requeued flit 130632
1
Received nack credit for flit 162754
Requeued flit 162754
1
Received nack credit for flit 181563
Requeued flit 181563
1
1
4
4
Received nack credit for flit 187577
Requeued flit 187577
Received nack credit for flit 166138
Requeued flit 166138
5
Received nack credit for flit 85280
Requeued flit 85280
Received nack credit for flit 128873
Requeued flit 128873
Received nack credit for flit 83568
Requeued flit 83568
1
5
Received nack credit for flit 198794
Requeued flit 198794
3
5
1
Received nack credit for flit 115439
Requeued flit 115439
3
2
Received nack credit for flit 106903
Requeued flit 106903
Received nack credit for flit 113263
Requeued flit 113263
6
Received nack credit for flit 160319
Requeued flit 160319
1
Received nack credit for flit 98716
Requeued flit 98716
Received nack credit for flit 188670
Requeued flit 188670
Received nack credit for flit 121291
Requeued flit 121291
Received nack credit for flit 190420
Requeued flit 190420
1
1
Received nack credit for flit 183460
Requeued flit 183460
Received nack credit for flit 163809
Requeued flit 163809
4
Received nack credit for flit 173790
Requeued flit 173790
2
Received nack credit for flit 132830
Requeued flit 132830
4
2
Received nack credit for flit 86574
Requeued flit 86574
Received nack credit for flit 191458
Requeued flit 191458
2
2
Received nack credit for flit 132730
Requeued flit 132730
2
Received nack credit for flit 134749
Requeued flit 134749
Received nack credit for flit 173123
Requeued flit 173123
10
2
1
Received nack credit for flit 153862
Requeued flit 153862
Received nack credit for flit 190200
Requeued flit 190200
1
1
Received nack credit for flit 190886
Requeued flit 190886
4
Received nack credit for flit 185036
Requeued flit 185036
Received nack credit for flit 149278
Requeued flit 149278
8
Received nack credit for flit 161841
Requeued flit 161841
Received nack credit for flit 101557
Requeued flit 101557
2
Received nack credit for flit 125822
Requeued flit 125822
1
Received nack credit for flit 173174
Requeued flit 173174
2
3
Received nack credit for flit 171400
Requeued flit 171400
Received nack credit for flit 83945
Requeued flit 83945
1
Received nack credit for flit 191196
Requeued flit 191196
5
1
5
Received nack credit for flit 161185
Requeued flit 161185
2
Received nack credit for flit 156507
Requeued flit 156507
Received nack credit for flit 92612
Requeued flit 92612
6
3
Received nack credit for flit 194397
Requeued flit 194397
Received nack credit for flit 180215
Requeued flit 180215
Received nack credit for flit 174688
Requeued flit 174688
6
6
Received nack credit for flit 185077
Requeued flit 185077
3
Received nack credit for flit 167781
Requeued flit 167781
Received nack credit for flit 124013
Requeued flit 124013
3
2
Received nack credit for flit 130536
Requeued flit 130536
Received nack credit for flit 140542
Requeued flit 140542
1
1
Received nack credit for flit 167388
Requeued flit 167388
Received nack credit for flit 189082
Requeued flit 189082
5
1
Received nack credit for flit 114381
Requeued flit 114381
Received nack credit for flit 132398
Requeued flit 132398
7
8
2
Received nack credit for flit 126977
Requeued flit 126977
Received nack credit for flit 76077
Requeued flit 76077
5
Received nack credit for flit 206098
Requeued flit 206098
Received nack credit for flit 136667
Requeued flit 136667
9
Received nack credit for flit 110830
Requeued flit 110830
4
1
Received nack credit for flit 195992
Requeued flit 195992
Received nack credit for flit 132881
Requeued flit 132881
1
1
Received nack credit for flit 190063
Requeued flit 190063
2
Received nack credit for flit 190942
Requeued flit 190942
1
Received nack credit for flit 137490
Requeued flit 137490
Received nack credit for flit 141495
Requeued flit 141495
5
Received nack credit for flit 141874
Requeued flit 141874
1
Received nack credit for flit 143651
Requeued flit 143651
2
4
Received nack credit for flit 178634
Requeued flit 178634
Received nack credit for flit 128842
Requeued flit 128842
5
Received nack credit for flit 195980
Requeued flit 195980
1
Received nack credit for flit 192473
Requeued flit 192473
6
Received nack credit for flit 127778
Requeued flit 127778
6
1
1
1
Received nack credit for flit 165179
Requeued flit 165179
Received nack credit for flit 137877
Requeued flit 137877
Received nack credit for flit 180710
Requeued flit 180710
Received nack credit for flit 180819
Requeued flit 180819
8
8
Received nack credit for flit 85931
Requeued flit 85931
Received nack credit for flit 179017
Requeued flit 179017
1
Received nack credit for flit 200437
Requeued flit 200437
1
3
5
Received nack credit for flit 194841
Requeued flit 194841
Received nack credit for flit 133293
Requeued flit 133293
7
Received nack credit for flit 95448
Requeued flit 95448
Received nack credit for flit 184461
Requeued flit 184461
1
Received nack credit for flit 201028
Requeued flit 201028
7
Received nack credit for flit 162895
Requeued flit 162895
4
1
3
Received nack credit for flit 185642
Requeued flit 185642
Received nack credit for flit 151150
Requeued flit 151150
Received nack credit for flit 175946
Requeued flit 175946
1
3
Received nack credit for flit 194540
Requeued flit 194540
Received nack credit for flit 94980
Requeued flit 94980
2
1
Received nack credit for flit 200636
Requeued flit 200636
Received nack credit for flit 196045
Requeued flit 196045
3
5
Received nack credit for flit 137748
Requeued flit 137748
5
4
1
1
Received nack credit for flit 137781
Requeued flit 137781
Received nack credit for flit 184717
Requeued flit 184717
Received nack credit for flit 94989
Requeued flit 94989
6
3
Received nack credit for flit 180662
Requeued flit 180662
Received nack credit for flit 196835
Requeued flit 196835
2
Received nack credit for flit 157622
Requeued flit 157622
Received nack credit for flit 193855
Requeued flit 193855
Received nack credit for flit 144558
Requeued flit 144558
9
6
Received nack credit for flit 80969
Requeued flit 80969
Received nack credit for flit 111242
Requeued flit 111242
1
Received nack credit for flit 166772
Requeued flit 166772
1
1
Received nack credit for flit 198590
Requeued flit 198590
Received nack credit for flit 202547
Requeued flit 202547
1
2
Received nack credit for flit 198119
Requeued flit 198119
4
5
8
5
Received nack credit for flit 203902
Requeued flit 203902
Received nack credit for flit 185274
Requeued flit 185274
Received nack credit for flit 130711
Requeued flit 130711
Received nack credit for flit 187081
Requeued flit 187081
Received nack credit for flit 86480
Requeued flit 86480
5
Received nack credit for flit 127378
Requeued flit 127378
1
3
Received nack credit for flit 199927
Requeued flit 199927
Received nack credit for flit 135137
Requeued flit 135137
7
Received nack credit for flit 81982
Requeued flit 81982
1
Received nack credit for flit 187007
Requeued flit 187007
4
Received nack credit for flit 135890
Requeued flit 135890
5
1
8
Received nack credit for flit 179375
Requeued flit 179375
3
Received nack credit for flit 199868
Requeued flit 199868
Received nack credit for flit 181351
Requeued flit 181351
1
Received nack credit for flit 205295
Requeued flit 205295
Received nack credit for flit 207806
Requeued flit 207806
1
Received nack credit for flit 217753
Requeued flit 217753
1
2
Received nack credit for flit 201315
Requeued flit 201315
Received nack credit for flit 136138
Requeued flit 136138
9
1
Received nack credit for flit 94870
Requeued flit 94870
2
2
Received nack credit for flit 201858
Requeued flit 201858
Received nack credit for flit 137917
Requeued flit 137917
Received nack credit for flit 201558
Requeued flit 201558
1
2
2
2
Received nack credit for flit 152909
Requeued flit 152909
Received nack credit for flit 194003
Requeued flit 194003
Received nack credit for flit 171094
Requeued flit 171094
Received nack credit for flit 189789
Requeued flit 189789
6
3
Received nack credit for flit 197477
Requeued flit 197477
Received nack credit for flit 191218
Requeued flit 191218
1
Received nack credit for flit 189696
Requeued flit 189696
1
4
Received nack credit for flit 159567
Requeued flit 159567
Received nack credit for flit 92963
Requeued flit 92963
1
Received nack credit for flit 151511
Requeued flit 151511
3
Received nack credit for flit 185958
Requeued flit 185958
3
3
6
Received nack credit for flit 209686
Requeued flit 209686
Received nack credit for flit 143416
Requeued flit 143416
Received nack credit for flit 200691
Requeued flit 200691
1
1
1
4
Received nack credit for flit 192198
Requeued flit 192198
Received nack credit for flit 188268
Requeued flit 188268
Received nack credit for flit 209914
Requeued flit 209914
Received nack credit for flit 189786
Requeued flit 189786
4
5
Received nack credit for flit 189656
Requeued flit 189656
Received nack credit for flit 190483
Requeued flit 190483
6
4
Received nack credit for flit 195388
Requeued flit 195388
3
Received nack credit for flit 209632
Requeued flit 209632
Received nack credit for flit 187953
Requeued flit 187953
2
1
Received nack credit for flit 194099
Requeued flit 194099
Received nack credit for flit 190290
Requeued flit 190290
1
Received nack credit for flit 211076
Requeued flit 211076
1
Received nack credit for flit 211068
Requeued flit 211068
8
5
Received nack credit for flit 144444
Requeued flit 144444
Received nack credit for flit 194465
Requeued flit 194465
1
1
Received nack credit for flit 194415
Requeued flit 194415
Received nack credit for flit 194928
Requeued flit 194928
1
Received nack credit for flit 222734
Requeued flit 222734
1
Received nack credit for flit 209043
Requeued flit 209043
1
Received nack credit for flit 209980
Requeued flit 209980
4
1
Received nack credit for flit 180321
Requeued flit 180321
Received nack credit for flit 196818
Requeued flit 196818
4
4
Received nack credit for flit 144572
Requeued flit 144572
Received nack credit for flit 146454
Requeued flit 146454
3
6
Received nack credit for flit 143282
Requeued flit 143282
3
Received nack credit for flit 202075
Requeued flit 202075
1
6
Received nack credit for flit 144569
Requeued flit 144569
Received nack credit for flit 196847
Requeued flit 196847
4
Received nack credit for flit 186584
Requeued flit 186584
Received nack credit for flit 97698
Requeued flit 97698
5
5
1
3
Received nack credit for flit 165939
Requeued flit 165939
Received nack credit for flit 144185
Requeued flit 144185
1
Received nack credit for flit 159803
Requeued flit 159803
Received nack credit for flit 148004
Requeued flit 148004
5
Received nack credit for flit 164624
Requeued flit 164624
Received nack credit for flit 213606
Requeued flit 213606
7
Received nack credit for flit 93226
Requeued flit 93226
1
Received nack credit for flit 195545
Requeued flit 195545
3
Received nack credit for flit 213352
Requeued flit 213352
1
Received nack credit for flit 211386
Requeued flit 211386
1
8
Received nack credit for flit 199923
Requeued flit 199923
Received nack credit for flit 186942
Requeued flit 186942
3
Received nack credit for flit 143097
Requeued flit 143097
6
6
1
Received nack credit for flit 123013
Requeued flit 123013
Received nack credit for flit 170348
Requeued flit 170348
1
Received nack credit for flit 149218
Requeued flit 149218
Received nack credit for flit 212869
Requeued flit 212869
1
1
Received nack credit for flit 214117
Requeued flit 214117
1
Received nack credit for flit 212364
Requeued flit 212364
6
Received nack credit for flit 214881
Requeued flit 214881
3
3
Received nack credit for flit 101146
Requeued flit 101146
Received nack credit for flit 152288
Requeued flit 152288
Received nack credit for flit 219941
Requeued flit 219941
1
Received nack credit for flit 213888
Requeued flit 213888
2
3
8
7
4
7
Received nack credit for flit 159511
Requeued flit 159511
Received nack credit for flit 214439
Requeued flit 214439
Received nack credit for flit 201683
Requeued flit 201683
Received nack credit for flit 189904
Requeued flit 189904
1
Received nack credit for flit 202266
Requeued flit 202266
6
Received nack credit for flit 184594
Requeued flit 184594
5
5
Received nack credit for flit 201668
Requeued flit 201668
Received nack credit for flit 199901
Requeued flit 199901
Received nack credit for flit 199462
Requeued flit 199462
3
Received nack credit for flit 97527
Requeued flit 97527
Received nack credit for flit 102518
Requeued flit 102518
2
1
2
Received nack credit for flit 217626
Requeued flit 217626
Received nack credit for flit 215550
Requeued flit 215550
Received nack credit for flit 204703
Requeued flit 204703
1
Received nack credit for flit 221788
Requeued flit 221788
7
Received nack credit for flit 183453
Requeued flit 183453
2
5
Received nack credit for flit 123829
Requeued flit 123829
Received nack credit for flit 127527
Requeued flit 127527
5
2
6
Received nack credit for flit 203709
Requeued flit 203709
Received nack credit for flit 202633
Requeued flit 202633
2
2
Received nack credit for flit 187448
Requeued flit 187448
Received nack credit for flit 145866
Requeued flit 145866
Received nack credit for flit 203632
Requeued flit 203632
2
3
Received nack credit for flit 162763
Requeued flit 162763
Received nack credit for flit 158596
Requeued flit 158596
2
3
2
Received nack credit for flit 151576
Requeued flit 151576
Received nack credit for flit 160295
Requeued flit 160295
4
Received nack credit for flit 179300
Requeued flit 179300
3
Received nack credit for flit 212779
Requeued flit 212779
2
1
Received nack credit for flit 201990
Requeued flit 201990
Received nack credit for flit 148022
Requeued flit 148022
Received nack credit for flit 229336
Requeued flit 229336
1
4
Received nack credit for flit 202632
Requeued flit 202632
6
Received nack credit for flit 98635
Requeued flit 98635
Received nack credit for flit 109956
Requeued flit 109956
1
1
1
4
Received nack credit for flit 225064
Requeued flit 225064
1
1
Received nack credit for flit 221516
Requeued flit 221516
Received nack credit for flit 102785
Requeued flit 102785
Received nack credit for flit 206242
Requeued flit 206242
Received nack credit for flit 219363
Requeued flit 219363
Received nack credit for flit 219274
Requeued flit 219274
1
Received nack credit for flit 220127
Requeued flit 220127
8
3
Received nack credit for flit 103188
Requeued flit 103188
7
1
5
Received nack credit for flit 206338
Requeued flit 206338
Received nack credit for flit 204202
Requeued flit 204202
Received nack credit for flit 209687
Requeued flit 209687
Received nack credit for flit 214886
Requeued flit 214886
6
1
1
1
Received nack credit for flit 96113
Requeued flit 96113
Received nack credit for flit 224017
Requeued flit 224017
Received nack credit for flit 219927
Requeued flit 219927
1
Received nack credit for flit 236828
Requeued flit 236828
Received nack credit for flit 206661
Requeued flit 206661
5
4
Received nack credit for flit 111751
Requeued flit 111751
Received nack credit for flit 156480
Requeued flit 156480
1
Received nack credit for flit 227237
Requeued flit 227237
7
Received nack credit for flit 102331
Requeued flit 102331
5
1
2
6
4
Received nack credit for flit 222257
Requeued flit 222257
Received nack credit for flit 210181
Requeued flit 210181
Received nack credit for flit 163815
Requeued flit 163815
Received nack credit for flit 152082
Requeued flit 152082
6
Received nack credit for flit 222081
Requeued flit 222081
Received nack credit for flit 101674
Requeued flit 101674
5
4
Received nack credit for flit 105080
Requeued flit 105080
Received nack credit for flit 187506
Requeued flit 187506
1
Received nack credit for flit 223835
Requeued flit 223835
3
Received nack credit for flit 181329
Requeued flit 181329
5
Received nack credit for flit 160864
Requeued flit 160864
3
6
Received nack credit for flit 177691
Requeued flit 177691
3
Received nack credit for flit 209730
Requeued flit 209730
1
8
Received nack credit for flit 240701
Requeued flit 240701
Received nack credit for flit 227811
Requeued flit 227811
Received nack credit for flit 96999
Requeued flit 96999
3
Received nack credit for flit 133769
Requeued flit 133769
1
2
Received nack credit for flit 227660
Requeued flit 227660
1
Received nack credit for flit 134125
Requeued flit 134125
2
Received nack credit for flit 212934
Requeued flit 212934
Received nack credit for flit 182372
Requeued flit 182372
4
3
Received nack credit for flit 155877
Requeued flit 155877
Received nack credit for flit 223295
Requeued flit 223295
1
5
Received nack credit for flit 217514
Requeued flit 217514
Received nack credit for flit 213289
Requeued flit 213289
4
Received nack credit for flit 105921
Requeued flit 105921
2
4
Received nack credit for flit 232395
Requeued flit 232395
Received nack credit for flit 102691
Requeued flit 102691
4
Received nack credit for flit 212469
Requeued flit 212469
1
5
6
7
Received nack credit for flit 102522
Requeued flit 102522
Received nack credit for flit 101065
Requeued flit 101065
Received nack credit for flit 211062
Requeued flit 211062
1
Received nack credit for flit 184009
Requeued flit 184009
4
2
Received nack credit for flit 231419
Requeued flit 231419
1
Received nack credit for flit 115559
Requeued flit 115559
Received nack credit for flit 214832
Requeued flit 214832
Received nack credit for flit 212131
Requeued flit 212131
6
2
12
2
4
Received nack credit for flit 199019
Requeued flit 199019
Received nack credit for flit 155159
Requeued flit 155159
Received nack credit for flit 166966
Requeued flit 166966
Received nack credit for flit 98314
Requeued flit 98314
Received nack credit for flit 153759
Requeued flit 153759
4
6
Received nack credit for flit 175078
Requeued flit 175078
1
Received nack credit for flit 108803
Requeued flit 108803
1
2
Received nack credit for flit 233717
Requeued flit 233717
1
Received nack credit for flit 230038
Requeued flit 230038
Received nack credit for flit 213643
Requeued flit 213643
Received nack credit for flit 218115
Requeued flit 218115
4
Received nack credit for flit 232247
Requeued flit 232247
9
4
1
Received nack credit for flit 166758
Requeued flit 166758
Received nack credit for flit 204943
Requeued flit 204943
Received nack credit for flit 231027
Requeued flit 231027
1
3
4
Received nack credit for flit 187062
Requeued flit 187062
1
Received nack credit for flit 215918
Requeued flit 215918
Received nack credit for flit 238355
Requeued flit 238355
1
1
1
Received nack credit for flit 189482
Requeued flit 189482
Received nack credit for flit 190881
Requeued flit 190881
1
Received nack credit for flit 192548
Requeued flit 192548
Received nack credit for flit 221580
Requeued flit 221580
Received nack credit for flit 235060
Requeued flit 235060
1
2
Received nack credit for flit 232116
Requeued flit 232116
4
Received nack credit for flit 218599
Requeued flit 218599
Received nack credit for flit 214237
Requeued flit 214237
4
2
Received nack credit for flit 114095
Requeued flit 114095
6
Received nack credit for flit 140044
Requeued flit 140044
3
Received nack credit for flit 100153
Requeued flit 100153
Received nack credit for flit 132247
Requeued flit 132247
5
5
1
10
Received nack credit for flit 225854
Requeued flit 225854
1
Received nack credit for flit 165215
Requeued flit 165215
Received nack credit for flit 218102
Requeued flit 218102
Received nack credit for flit 233483
Requeued flit 233483
4
Received nack credit for flit 161569
Requeued flit 161569
Received nack credit for flit 218413
Requeued flit 218413
3
Received nack credit for flit 140414
Requeued flit 140414
2
5
Received nack credit for flit 156239
Requeued flit 156239
Received nack credit for flit 119537
Requeued flit 119537
7
9
Received nack credit for flit 107099
Requeued flit 107099
1
Received nack credit for flit 99818
Requeued flit 99818
Received nack credit for flit 225605
Requeued flit 225605
2
6
Received nack credit for flit 238736
Requeued flit 238736
Received nack credit for flit 104724
Requeued flit 104724
1
3
Received nack credit for flit 234086
Requeued flit 234086
5
3
Received nack credit for flit 237009
Requeued flit 237009
6
Received nack credit for flit 110771
Requeued flit 110771
Received nack credit for flit 210646
Requeued flit 210646
Received nack credit for flit 205067
Requeued flit 205067
4
1
Received nack credit for flit 133574
Requeued flit 133574
Received nack credit for flit 236612
Requeued flit 236612
1
Received nack credit for flit 245460
Requeued flit 245460
3
Received nack credit for flit 170721
Requeued flit 170721
6
2
5
Received nack credit for flit 210183
Requeued flit 210183
Received nack credit for flit 224416
Requeued flit 224416
Received nack credit for flit 172102
Requeued flit 172102
4
1
Received nack credit for flit 230052
Requeued flit 230052
Received nack credit for flit 222583
Requeued flit 222583
1
9
1
3
Received nack credit for flit 226115
Requeued flit 226115
2
Received nack credit for flit 237941
Requeued flit 237941
Received nack credit for flit 137374
Requeued flit 137374
Received nack credit for flit 109664
Requeued flit 109664
Received nack credit for flit 231779
Requeued flit 231779
8
Received nack credit for flit 123707
Requeued flit 123707
2
5
Received nack credit for flit 153398
Requeued flit 153398
Received nack credit for flit 200751
Requeued flit 200751
1
Received nack credit for flit 240881
Requeued flit 240881
1
3
7
Received nack credit for flit 198489
Requeued flit 198489
Received nack credit for flit 126640
Requeued flit 126640
Received nack credit for flit 231290
Requeued flit 231290
7
5
1
Received nack credit for flit 119097
Requeued flit 119097
3
Received nack credit for flit 110057
Requeued flit 110057
2
2
6
Received nack credit for flit 241670
Requeued flit 241670
7
Received nack credit for flit 184788
Requeued flit 184788
Received nack credit for flit 189869
Requeued flit 189869
Received nack credit for flit 111775
Requeued flit 111775
5
Received nack credit for flit 193793
Requeued flit 193793
6
1
1
Received nack credit for flit 125163
Requeued flit 125163
1
Received nack credit for flit 116927
Requeued flit 116927
Received nack credit for flit 199603
Requeued flit 199603
1
Received nack credit for flit 227967
Requeued flit 227967
Received nack credit for flit 228278
Requeued flit 228278
Received nack credit for flit 257746
Requeued flit 257746
1
1
1
Received nack credit for flit 228258
Requeued flit 228258
Received nack credit for flit 201798
Requeued flit 201798
Received nack credit for flit 256607
Requeued flit 256607
4
1
Received nack credit for flit 229418
Requeued flit 229418
3
Received nack credit for flit 228477
Requeued flit 228477
3
Received nack credit for flit 122949
Requeued flit 122949
3
Received nack credit for flit 173539
Requeued flit 173539
3
Received nack credit for flit 158171
Requeued flit 158171
2
Received nack credit for flit 142856
Requeued flit 142856
Received nack credit for flit 228690
Requeued flit 228690
6
Received nack credit for flit 126750
Requeued flit 126750
1
5
Received nack credit for flit 242486
Requeued flit 242486
Received nack credit for flit 167354
Requeued flit 167354
4
6
Received nack credit for flit 190086
Requeued flit 190086
Received nack credit for flit 245965
Requeued flit 245965
6
5
Received nack credit for flit 221561
Requeued flit 221561
Received nack credit for flit 113096
Requeued flit 113096
5
5
Received nack credit for flit 229319
Requeued flit 229319
Received nack credit for flit 248675
Requeued flit 248675
7
Received nack credit for flit 241994
Requeued flit 241994
1
1
Received nack credit for flit 244449
Requeued flit 244449
5
Received nack credit for flit 234063
Requeued flit 234063
Received nack credit for flit 235364
Requeued flit 235364
1
1
3
Received nack credit for flit 233910
Requeued flit 233910
1
Received nack credit for flit 234097
Requeued flit 234097
Received nack credit for flit 205643
Requeued flit 205643
Received nack credit for flit 146713
Requeued flit 146713
8
3
7
6
Received nack credit for flit 236748
Requeued flit 236748
Received nack credit for flit 215745
Requeued flit 215745
2
3
6
Received nack credit for flit 140467
Requeued flit 140467
Received nack credit for flit 176630
Requeued flit 176630
Received nack credit for flit 191367
Requeued flit 191367
1
Received nack credit for flit 220018
Requeued flit 220018
Received nack credit for flit 247468
Requeued flit 247468
Received nack credit for flit 234110
Requeued flit 234110
2
Received nack credit for flit 157009
Requeued flit 157009
3
6
Received nack credit for flit 232136
Requeued flit 232136
Received nack credit for flit 181962
Requeued flit 181962
1
11
8
Received nack credit for flit 205571
Requeued flit 205571
Received nack credit for flit 227059
Requeued flit 227059
Received nack credit for flit 217172
Requeued flit 217172
7
3
8
5
Received nack credit for flit 113653
Requeued flit 113653
Received nack credit for flit 238115
Requeued flit 238115
Received nack credit for flit 109284
Requeued flit 109284
Received nack credit for flit 234681
Requeued flit 234681
6
Received nack credit for flit 110062
Requeued flit 110062
4
Received nack credit for flit 183609
Requeued flit 183609
1
Received nack credit for flit 248029
Requeued flit 248029
3
Received nack credit for flit 143231
Requeued flit 143231
1
5
1
3
Received nack credit for flit 235473
Requeued flit 235473
Received nack credit for flit 263907
Requeued flit 263907
Received nack credit for flit 226743
Requeued flit 226743
Received nack credit for flit 252362
Requeued flit 252362
8
1
Received nack credit for flit 120208
Requeued flit 120208
Received nack credit for flit 249033
Requeued flit 249033
3
2
Received nack credit for flit 130048
Requeued flit 130048
1
1
3
Received nack credit for flit 201020
Requeued flit 201020
1
Received nack credit for flit 208260
Requeued flit 208260
Received nack credit for flit 239872
Requeued flit 239872
Received nack credit for flit 237691
Requeued flit 237691
1
Received nack credit for flit 217839
Requeued flit 217839
6
2
Received nack credit for flit 114678
Requeued flit 114678
Received nack credit for flit 255159
Requeued flit 255159
4
Received nack credit for flit 249094
Requeued flit 249094
1
3
Received nack credit for flit 239267
Requeued flit 239267
Received nack credit for flit 132489
Requeued flit 132489
6
6
Received nack credit for flit 187021
Requeued flit 187021
Received nack credit for flit 235189
Requeued flit 235189
5
1
1
Received nack credit for flit 115682
Requeued flit 115682
Received nack credit for flit 252660
Requeued flit 252660
Received nack credit for flit 255583
Requeued flit 255583
1
4
Received nack credit for flit 213750
Requeued flit 213750
Received nack credit for flit 235193
Requeued flit 235193
1
4
1
Received nack credit for flit 210557
Requeued flit 210557
Received nack credit for flit 197457
Requeued flit 197457
Received nack credit for flit 252594
Requeued flit 252594
5
1
2
Received nack credit for flit 250134
Requeued flit 250134
Received nack credit for flit 255817
Requeued flit 255817
Received nack credit for flit 170125
Requeued flit 170125
2
4
Received nack credit for flit 239635
Requeued flit 239635
1
Received nack credit for flit 187754
Requeued flit 187754
7
2
Received nack credit for flit 255598
Requeued flit 255598
6
Received nack credit for flit 206686
Requeued flit 206686
Received nack credit for flit 186422
Requeued flit 186422
Received nack credit for flit 232456
Requeued flit 232456
1
4
8
Received nack credit for flit 211304
Requeued flit 211304
8
Received nack credit for flit 123943
Requeued flit 123943
2
Received nack credit for flit 125118
Requeued flit 125118
Received nack credit for flit 196339
Requeued flit 196339
3
Received nack credit for flit 163633
Requeued flit 163633
Received nack credit for flit 129069
Requeued flit 129069
1
Received nack credit for flit 243334
Requeued flit 243334
1
5
Received nack credit for flit 244324
Requeued flit 244324
Received nack credit for flit 252617
Requeued flit 252617
2
6
6
2
Received nack credit for flit 258888
Requeued flit 258888
Received nack credit for flit 119295
Requeued flit 119295
2
2
Received nack credit for flit 191185
Requeued flit 191185
Received nack credit for flit 255929
Requeued flit 255929
Received nack credit for flit 239861
Requeued flit 239861
Received nack credit for flit 258068
Requeued flit 258068
7
1
Received nack credit for flit 195393
Requeued flit 195393
Received nack credit for flit 244869
[...]
Received nack credit for flit 287716
Requeued flit 287716
Received nack credit for flit 313230
Requeued flit 313230
2
Received nack credit for flit 314268
Requeued flit 314268
Received nack credit for flit 239532
Requeued flit 239532
2
5
3
Received nack credit for flit 271800
Requeued flit 271800
Received nack credit for flit 149662
Requeued flit 149662
Received nack credit for flit 210547
Requeued flit 210547
2
Received nack credit for flit 227760
Requeued flit 227760
6
3
Received nack credit for flit 149352
Requeued flit 149352
Received nack credit for flit 183105
Requeued flit 183105
1
Received nack credit for flit 291822
Requeued flit 291822
6
1
Received nack credit for flit 310091
Requeued flit 310091
Received nack credit for flit 283555
Requeued flit 283555
9
1
1
Received nack credit for flit 316418
Requeued flit 316418
Received nack credit for flit 155775
Requeued flit 155775
4
Received nack credit for flit 317202
Requeued flit 317202
Received nack credit for flit 309927
Requeued flit 309927
4
2
1
3
Received nack credit for flit 187800
Requeued flit 187800
Received nack credit for flit 227920
Requeued flit 227920
Received nack credit for flit 313238
Requeued flit 313238
Received nack credit for flit 212697
Requeued flit 212697
2
1
3
Received nack credit for flit 256780
Requeued flit 256780
Received nack credit for flit 328473
Requeued flit 328473
Received nack credit for flit 228662
Requeued flit 228662
4
Received nack credit for flit 255813
Requeued flit 255813
1
1
Received nack credit for flit 317218
Requeued flit 317218
1
Received nack credit for flit 319165
Requeued flit 319165
Received nack credit for flit 314591
Requeued flit 314591
1
Received nack credit for flit 318746
Requeued flit 318746
4
5
Received nack credit for flit 322381
Requeued flit 322381
Received nack credit for flit 308004
Requeued flit 308004
1
7
6
Received nack credit for flit 317990
Requeued flit 317990
2
Received nack credit for flit 308874
Requeued flit 308874
Received nack credit for flit 307860
Requeued flit 307860
Received nack credit for flit 284158
Requeued flit 284158
4
7
Received nack credit for flit 320934
Requeued flit 320934
Received nack credit for flit 298299
Requeued flit 298299
1
Received nack credit for flit 323488
Requeued flit 323488
5
7
Received nack credit for flit 200180
Requeued flit 200180
Received nack credit for flit 256601
Requeued flit 256601
5
5
6
5
Received nack credit for flit 316556
Requeued flit 316556
Received nack credit for flit 236035
Requeued flit 236035
Received nack credit for flit 266972
Requeued flit 266972
Received nack credit for flit 314044
Requeued flit 314044
5
5
3
Received nack credit for flit 314568
Requeued flit 314568
Received nack credit for flit 237349
Requeued flit 237349
Received nack credit for flit 262810
Requeued flit 262810
2
Received nack credit for flit 258530
Requeued flit 258530
5
5
1
8
Received nack credit for flit 155448
Requeued flit 155448
Received nack credit for flit 314075
Requeued flit 314075
Received nack credit for flit 322470
Requeued flit 322470
Received nack credit for flit 200455
Requeued flit 200455
4
2
Received nack credit for flit 235353
Requeued flit 235353
1
Received nack credit for flit 326174
Requeued flit 326174
Received nack credit for flit 287357
Requeued flit 287357
3
Received nack credit for flit 315045
Requeued flit 315045
2
4
7
Received nack credit for flit 318670
Requeued flit 318670
1
Received nack credit for flit 166842
Requeued flit 166842
Received nack credit for flit 195101
Requeued flit 195101
1
Received nack credit for flit 324327
Requeued flit 324327
4
Received nack credit for flit 291304
Requeued flit 291304
5
Received nack credit for flit 325115
Requeued flit 325115
Received nack credit for flit 313016
Requeued flit 313016
2
9
Received nack credit for flit 152734
Requeued flit 152734
1
Received nack credit for flit 325483
Requeued flit 325483
4
12
Received nack credit for flit 325560
Requeued flit 325560
1
Received nack credit for flit 173998
Requeued flit 173998
Received nack credit for flit 155485
Requeued flit 155485
Received nack credit for flit 324822
Requeued flit 324822
3
1
Received nack credit for flit 325302
Requeued flit 325302
Received nack credit for flit 326247
Requeued flit 326247
2
3
Received nack credit for flit 308559
Requeued flit 308559
Received nack credit for flit 230103
Requeued flit 230103
2
10
Received nack credit for flit 322509
Requeued flit 322509
Received nack credit for flit 198717
Requeued flit 198717
4
Received nack credit for flit 232885
Requeued flit 232885
6
1
3
Received nack credit for flit 198318
Requeued flit 198318
Received nack credit for flit 304831
Requeued flit 304831
Received nack credit for flit 322425
Requeued flit 322425
2
Received nack credit for flit 291610
Requeued flit 291610
4
Received nack credit for flit 328464
Requeued flit 328464
1
2
Received nack credit for flit 328753
Requeued flit 328753
Received nack credit for flit 304865
Requeued flit 304865
1
3
1
Received nack credit for flit 299115
Requeued flit 299115
Received nack credit for flit 324136
Requeued flit 324136
1
Received nack credit for flit 329925
Requeued flit 329925
3
Received nack credit for flit 330292
Requeued flit 330292
Received nack credit for flit 198897
Requeued flit 198897
1
Received nack credit for flit 329534
Requeued flit 329534
3
5
Received nack credit for flit 289244
Requeued flit 289244
2
Received nack credit for flit 313778
Requeued flit 313778
9
Received nack credit for flit 164813
Requeued flit 164813
Received nack credit for flit 331937
Requeued flit 331937
1
Received nack credit for flit 307000
Requeued flit 307000
5
4
Received nack credit for flit 288219
Requeued flit 288219
8
Received nack credit for flit 291709
Requeued flit 291709
8
1
Received nack credit for flit 201007
Requeued flit 201007
Received nack credit for flit 275430
Requeued flit 275430
Received nack credit for flit 333853
Requeued flit 333853
1
Received nack credit for flit 329355
Requeued flit 329355
1
9
Received nack credit for flit 337402
Requeued flit 337402
Received nack credit for flit 204173
Requeued flit 204173
1
Received nack credit for flit 332828
Requeued flit 332828
11
Received nack credit for flit 172964
Requeued flit 172964
6
Received nack credit for flit 283319
Requeued flit 283319
3
1
Received nack credit for flit 309056
Requeued flit 309056
Received nack credit for flit 305757
Requeued flit 305757
7
4
1
Received nack credit for flit 267553
Requeued flit 267553
Received nack credit for flit 160585
Requeued flit 160585
Received nack credit for flit 303553
Requeued flit 303553
1
Received nack credit for flit 336713
Requeued flit 336713
1
Received nack credit for flit 332364
Requeued flit 332364
7
7
Received nack credit for flit 269203
Requeued flit 269203
Received nack credit for flit 259509
Requeued flit 259509
1
Received nack credit for flit 332110
Requeued flit 332110
6
2
5
1
Received nack credit for flit 312870
Requeued flit 312870
Received nack credit for flit 319194
Requeued flit 319194
Received nack credit for flit 332499
Requeued flit 332499
Received nack credit for flit 291721
Requeued flit 291721
4
7
Received nack credit for flit 175795
Requeued flit 175795
Received nack credit for flit 316254
Requeued flit 316254
2
Received nack credit for flit 335345
Requeued flit 335345
4
Received nack credit for flit 335659
Requeued flit 335659
2
Received nack credit for flit 317610
Requeued flit 317610
2
5
Received nack credit for flit 159630
Requeued flit 159630
Received nack credit for flit 338318
Requeued flit 338318
2
1
Received nack credit for flit 309522
Requeued flit 309522
Received nack credit for flit 343117
Requeued flit 343117
1
Received nack credit for flit 308664
Requeued flit 308664
1
Received nack credit for flit 335701
Requeued flit 335701
3
2
Received nack credit for flit 281465
Requeued flit 281465
1
8
Received nack credit for flit 331279
Requeued flit 331279
7
Received nack credit for flit 340392
Requeued flit 340392
Received nack credit for flit 217851
Requeued flit 217851
Received nack credit for flit 326876
Requeued flit 326876
5
1
Received nack credit for flit 219980
Requeued flit 219980
3
1
3
2
Received nack credit for flit 283246
Requeued flit 283246
Received nack credit for flit 314420
Requeued flit 314420
1
Received nack credit for flit 335099
Requeued flit 335099
Received nack credit for flit 297613
Requeued flit 297613
Received nack credit for flit 335901
Requeued flit 335901
Received nack credit for flit 314869
Requeued flit 314869
3
4
Received nack credit for flit 282349
Requeued flit 282349
Received nack credit for flit 324335
Requeued flit 324335
4
1
2
Received nack credit for flit 344460
Requeued flit 344460
Received nack credit for flit 333971
Requeued flit 333971
Received nack credit for flit 320830
Requeued flit 320830
3
4
6
2
1
Received nack credit for flit 309378
Requeued flit 309378
Received nack credit for flit 306431
Requeued flit 306431
Received nack credit for flit 323609
Requeued flit 323609
Received nack credit for flit 253753
Requeued flit 253753
Received nack credit for flit 309623
Requeued flit 309623
3
Received nack credit for flit 311473
Requeued flit 311473
7
Received nack credit for flit 275282
Requeued flit 275282
5
1
Received nack credit for flit 323162
Requeued flit 323162
Received nack credit for flit 311507
Requeued flit 311507
6
7
Received nack credit for flit 311668
Requeued flit 311668
Received nack credit for flit 282867
Requeued flit 282867
1
1
Received nack credit for flit 335205
Requeued flit 335205
Received nack credit for flit 341150
Requeued flit 341150
4
Received nack credit for flit 213573
Requeued flit 213573
2
1
1
Received nack credit for flit 337492
Requeued flit 337492
Received nack credit for flit 340593
Requeued flit 340593
Received nack credit for flit 344812
Requeued flit 344812
3
2
Received nack credit for flit 334727
Requeued flit 334727
Received nack credit for flit 340912
Requeued flit 340912
4
4
1
Received nack credit for flit 307394
Requeued flit 307394
Received nack credit for flit 340591
Requeued flit 340591
Received nack credit for flit 349389
Requeued flit 349389
1
Received nack credit for flit 337795
Requeued flit 337795
1
2
Received nack credit for flit 346939
Requeued flit 346939
Received nack credit for flit 331962
Requeued flit 331962
10
Received nack credit for flit 170679
Requeued flit 170679
1
Received nack credit for flit 339965
Requeued flit 339965
1
1
Received nack credit for flit 338301
Requeued flit 338301
Received nack credit for flit 348143
Requeued flit 348143
6
2
Received nack credit for flit 295572
Requeued flit 295572
1
1
Received nack credit for flit 262664
Requeued flit 262664
Received nack credit for flit 348856
Requeued flit 348856
Received nack credit for flit 317567
Requeued flit 317567
6
3
Received nack credit for flit 169696
Requeued flit 169696
Received nack credit for flit 349463
Requeued flit 349463
1
Received nack credit for flit 343623
Requeued flit 343623
1
Received nack credit for flit 349013
Requeued flit 349013
3
1
3
Received nack credit for flit 223637
Requeued flit 223637
Received nack credit for flit 344278
Requeued flit 344278
4
Received nack credit for flit 284680
Requeued flit 284680
Received nack credit for flit 191751
Requeued flit 191751
5
1
3
Received nack credit for flit 288776
Requeued flit 288776
1
Received nack credit for flit 306193
Requeued flit 306193
Received nack credit for flit 347241
Requeued flit 347241
Received nack credit for flit 337373
Requeued flit 337373
1
Received nack credit for flit 346123
Requeued flit 346123
2
Received nack credit for flit 289176
Requeued flit 289176
3
4
Received nack credit for flit 342883
Requeued flit 342883
3
1
Received nack credit for flit 345802
Requeued flit 345802
Received nack credit for flit 223659
Requeued flit 223659
4
7
Received nack credit for flit 351312
Requeued flit 351312
Received nack credit for flit 350800
Requeued flit 350800
Received nack credit for flit 310077
Requeued flit 310077
1
1
1
Received nack credit for flit 324065
Requeued flit 324065
2
Received nack credit for flit 346575
Requeued flit 346575
3
Received nack credit for flit 265886
Requeued flit 265886
4
Received nack credit for flit 217786
Requeued flit 217786
Received nack credit for flit 338065
Requeued flit 338065
1
1
2
Received nack credit for flit 324348
Requeued flit 324348
Received nack credit for flit 343361
Requeued flit 343361
5
6
Received nack credit for flit 262165
Requeued flit 262165
Received nack credit for flit 283395
Requeued flit 283395
Received nack credit for flit 170212
Requeued flit 170212
3
Received nack credit for flit 239816
Requeued flit 239816
1
Received nack credit for flit 341811
Requeued flit 341811
2
Received nack credit for flit 333260
Requeued flit 333260
1
4
Received nack credit for flit 354834
Requeued flit 354834
Received nack credit for flit 237298
Requeued flit 237298
3
1
1
Received nack credit for flit 291663
Requeued flit 291663
Received nack credit for flit 352370
Requeued flit 352370
Received nack credit for flit 325458
Requeued flit 325458
5
1
Received nack credit for flit 342591
Requeued flit 342591
3
Received nack credit for flit 320859
Requeued flit 320859
6
Received nack credit for flit 347626
Requeued flit 347626
1
1
Received nack credit for flit 355832
Requeued flit 355832
Received nack credit for flit 354085
Requeued flit 354085
Received nack credit for flit 349200
Requeued flit 349200
2
Received nack credit for flit 296108
Requeued flit 296108
6
5
Received nack credit for flit 351363
Requeued flit 351363
Received nack credit for flit 344376
Requeued flit 344376
1
Received nack credit for flit 330897
Requeued flit 330897
7
Received nack credit for flit 232824
Requeued flit 232824
1
2
Received nack credit for flit 355822
Requeued flit 355822
2
Received nack credit for flit 346181
Requeued flit 346181
3
Received nack credit for flit 341948
Requeued flit 341948
4
2
1
Received nack credit for flit 353060
Requeued flit 353060
2
Received nack credit for flit 316451
Requeued flit 316451
Received nack credit for flit 354372
Requeued flit 354372
Received nack credit for flit 357624
Requeued flit 357624
6
Received nack credit for flit 264893
Requeued flit 264893
1
Received nack credit for flit 238250
Requeued flit 238250
1
Received nack credit for flit 335492
Requeued flit 335492
Received nack credit for flit 351589
Requeued flit 351589
4
1
Received nack credit for flit 322074
Requeued flit 322074
3
Received nack credit for flit 355670
Requeued flit 355670
3
Received nack credit for flit 297032
Requeued flit 297032
Received nack credit for flit 329854
Requeued flit 329854
1
4
1
4
1
Received nack credit for flit 332224
Requeued flit 332224
Received nack credit for flit 332238
Requeued flit 332238
Received nack credit for flit 349659
Requeued flit 349659
Received nack credit for flit 297872
Requeued flit 297872
Received nack credit for flit 359409
Requeued flit 359409
1
1
Received nack credit for flit 359203
Requeued flit 359203
Received nack credit for flit 364674
Requeued flit 364674
1
4
Received nack credit for flit 330928
Requeued flit 330928
Received nack credit for flit 343775
Requeued flit 343775
3
5
3
Received nack credit for flit 359571
Requeued flit 359571
Received nack credit for flit 331703
Requeued flit 331703
Received nack credit for flit 303278
Requeued flit 303278
8
2
Received nack credit for flit 360745
Requeued flit 360745
Received nack credit for flit 174512
Requeued flit 174512
1
3
2
2
Received nack credit for flit 368794
Requeued flit 368794
Received nack credit for flit 326520
Requeued flit 326520
Received nack credit for flit 273570
Requeued flit 273570
Received nack credit for flit 294651
Requeued flit 294651
1
5
1
1
Received nack credit for flit 362216
Requeued flit 362216
Received nack credit for flit 330790
Requeued flit 330790
Received nack credit for flit 359787
Requeued flit 359787
4
Received nack credit for flit 334000
Requeued flit 334000
7
3
Received nack credit for flit 350797
Requeued flit 350797
1
Received nack credit for flit 339921
Requeued flit 339921
Received nack credit for flit 350313
Requeued flit 350313
Received nack credit for flit 336326
Requeued flit 336326
8
1
Received nack credit for flit 188856
Requeued flit 188856
Received nack credit for flit 352015
Requeued flit 352015
1
1
6
1
Received nack credit for flit 356271
Requeued flit 356271
Received nack credit for flit 360480
Requeued flit 360480
Received nack credit for flit 265812
Requeued flit 265812
4
Received nack credit for flit 328435
Requeued flit 328435
4
1
Received nack credit for flit 199770
Requeued flit 199770
Received nack credit for flit 364464
Requeued flit 364464
Received nack credit for flit 336237
Requeued flit 336237
4
6
1
Received nack credit for flit 343922
Requeued flit 343922
Received nack credit for flit 305867
Requeued flit 305867
4
1
1
Received nack credit for flit 362827
Requeued flit 362827
Received nack credit for flit 341902
Requeued flit 341902
4
Received nack credit for flit 360675
Requeued flit 360675
Received nack credit for flit 357114
Requeued flit 357114
3
4
Received nack credit for flit 337335
Requeued flit 337335
Received nack credit for flit 361973
Requeued flit 361973
Received nack credit for flit 261449
Requeued flit 261449
6
3
Received nack credit for flit 246643
Requeued flit 246643
Received nack credit for flit 342540
Requeued flit 342540
4
Received nack credit for flit 216057
Requeued flit 216057
1
7
Received nack credit for flit 363327
Requeued flit 363327
Received nack credit for flit 322673
Requeued flit 322673
1
1
Received nack credit for flit 341553
Requeued flit 341553
10
Received nack credit for flit 359487
Requeued flit 359487
7
Received nack credit for flit 332315
Requeued flit 332315
Received nack credit for flit 359359
Requeued flit 359359
2
5
Received nack credit for flit 332102
Requeued flit 332102
4
2
Received nack credit for flit 348322
Requeued flit 348322
5
Received nack credit for flit 358362
Requeued flit 358362
Received nack credit for flit 333986
Requeued flit 333986
Received nack credit for flit 354559
Requeued flit 354559
5
Received nack credit for flit 210008
Requeued flit 210008
2
1
Received nack credit for flit 329239
Requeued flit 329239
5
Received nack credit for flit 340094
Requeued flit 340094
3
Received nack credit for flit 244949
Requeued flit 244949
Received nack credit for flit 224321
Requeued flit 224321
5
5
Received nack credit for flit 174190
Requeued flit 174190
Received nack credit for flit 310715
Requeued flit 310715
4
Received nack credit for flit 308886
Requeued flit 308886
2
4
Received nack credit for flit 343356
Requeued flit 343356
Received nack credit for flit 355741
Requeued flit 355741
1
1
Received nack credit for flit 355876
Requeued flit 355876
Received nack credit for flit 359781
Requeued flit 359781
1
6
Received nack credit for flit 205019
Requeued flit 205019
Received nack credit for flit 344151
Requeued flit 344151
2
Class 0:
Packet latency average = 1730.51
	minimum = 5
	maximum = 6969
Network latency average = 1470.47
	minimum = 5
	maximum = 6969
Slowest packet = 166901
Flit latency average = 1470.47
	minimum = 5
	maximum = 6969
Slowest flit = 166901
Fragmentation average = 0
	minimum = 0
	maximum = 0
Injected packet rate average = 0.618945
	minimum = 0.4259 (at node 14)
	maximum = 0.9014 (at node 12)
Accepted packet rate average = 0.500761
	minimum = 0.4776 (at node 21)
	maximum = 0.5142 (at node 63)
Injected flit rate average = 0.618945
	minimum = 0.4259 (at node 14)
	maximum = 0.9014 (at node 12)
Accepted flit rate average= 0.500761
	minimum = 0.4776 (at node 21)
	maximum = 0.5142 (at node 63)
Injected packet length average = 1
Accepted packet length average = 1
Total in-flight flits = 75670 (0 measured)
latency change    = 1
throughput change = 1
Average latency for class 0 exceeded 500 cycles. Aborting simulation.
Too many sample periods needed to converge
Simulation unstable, ending ...
Total run time 54.9119
