BEGIN Configuration File: examples/ecc_mesh88_config_1_0.010_packet_3
// $Id$

// Copyright (c) 2007-2015, Trustees of The Leland Stanford Junior University
// All rights reserved.
//
// Redistribution and use in source and binary forms, with or without
// modification, are permitted provided that the following conditions are met:
//
// Redistributions of source code must retain the above copyright notice, this
// list of conditions and the following disclaimer.
// Redistributions in binary form must reproduce the above copyright notice,
// this list of conditions and the following disclaimer in the documentation
// and/or other materials provided with the distribution.
//
// THIS SOFTWARE IS PROVIDED BY THE COPYRIGHT HOLDERS AND CONTRIBUTORS "AS IS"
// AND ANY EXPRESS OR IMPLIED WARRANTIES, INCLUDING, BUT NOT LIMITED TO, THE
// IMPLIED WARRANTIES OF MERCHANTABILITY AND FITNESS FOR A PARTICULAR PURPOSE
// ARE DISCLAIMED. IN NO EVENT SHALL THE COPYRIGHT OWNER OR CONTRIBUTORS BE
// LIABLE FOR ANY DIRECT, INDIRECT, INCIDENTAL, SPECIAL, EXEMPLARY, OR
// CONSEQUENTIAL DAMAGES (INCLUDING, BUT NOT LIMITED TO, PROCUREMENT OF
// SUBSTITUTE GOODS OR SERVICES; LOSS OF USE, DATA, OR PROFITS; OR BUSINESS
// INTERRUPTION) HOWEVER CAUSED AND ON ANY THEORY OF LIABILITY, WHETHER IN
// CONTRACT, STRICT LIABILITY, OR TORT (INCLUDING NEGLIGENCE OR OTHERWISE)
// ARISING IN ANY WAY OUT OF THE USE OF THIS SOFTWARE, EVEN IF ADVISED OF THE
// POSSIBILITY OF SUCH DAMAGE.

// Dragonfly
//




vc_buf_size = 256;


wait_for_tail_credit = 0;

//
// Router architecture
//
vc_allocator = separable_input_first; 
sw_allocator = separable_input_first;
alloc_iters  = 1;

credit_delay   = 2;
routing_delay  = 0;
vc_alloc_delay = 1;
sw_alloc_delay = 1;
st_final_delay = 1;

input_speedup     = 1;
output_speedup    = 1;
internal_speedup  = 2.0;


warmup_periods = 3;
sim_count          = 1;

sample_period  = 10000;  


routing_function = dor;
num_vcs     = 2;

priority = none;
traffic       = uniform; 

injection_rate = 0.01;
packet_size = 1;
injection_rate_uses_flits = 1;

topology = mesh;

k  = 8;
n  = 2;

fer = 3;
ecc = link;

watch_out=-;
//watch_file = watch.txt;

ecc = packet;

stats_out = examples/ecc_mesh88_config_1_0.010_packet_3.m;

END Configuration File: examples/ecc_mesh88_config_1_0.010_packet_3
Additional hops: 11
Set signal latency stall time: 22
Reenqueueing errored packet 44 at time 137
Additional hops: 17
Set signal latency stall time: 12
Reenqueueing errored packet 194 at time 363
Additional hops: 20
Set signal latency stall time: 6
Reenqueueing errored packet 235 at time 391
Additional hops: 25
Set signal latency stall time: 10
Reenqueueing errored packet 271 at time 467
Additional hops: 39
Set signal latency stall time: 28
Reenqueueing errored packet 445 at time 795
Additional hops: 48
Set signal latency stall time: 18
Reenqueueing errored packet 694 at time 1177
Additional hops: 54
Set signal latency stall time: 12
Reenqueueing errored packet 772 at time 1302
Additional hops: 63
Set signal latency stall time: 18
Reenqueueing errored packet 840 at time 1432
Additional hops: 68
Set signal latency stall time: 10
Reenqueueing errored packet 1022 at time 1693
Additional hops: 73
Set signal latency stall time: 10
Reenqueueing errored packet 1082 at time 1786
Additional hops: 81
Set signal latency stall time: 16
Reenqueueing errored packet 1305 at time 2094
Additional hops: 87
Set signal latency stall time: 12
Reenqueueing errored packet 1433 at time 2299
Additional hops: 93
Set signal latency stall time: 12
Reenqueueing errored packet 1463 at time 2363
Additional hops: 101
Set signal latency stall time: 16
Reenqueueing errored packet 1470 at time 2383
Additional hops: 106
Set signal latency stall time: 10
Reenqueueing errored packet 1706 at time 2732
Additional hops: 109
Set signal latency stall time: 6
Reenqueueing errored packet 1756 at time 2796
Additional hops: 118
Set signal latency stall time: 18
Reenqueueing errored packet 2401 at time 3821
Additional hops: 124
Set signal latency stall time: 12
Reenqueueing errored packet 2444 at time 3882
Additional hops: 135
Set signal latency stall time: 22
Reenqueueing errored packet 2518 at time 4021
Additional hops: 142
Set signal latency stall time: 14
Reenqueueing errored packet 2552 at time 4058
Additional hops: 151
Set signal latency stall time: 18
Reenqueueing errored packet 2946 at time 4747
Additional hops: 160
Set signal latency stall time: 18
Reenqueueing errored packet 3173 at time 5086
Additional hops: 169
Set signal latency stall time: 18
Additional hops: 179
Set signal latency stall time: 20
Reenqueueing errored packet 3216 at time 5138
Reenqueueing errored packet 3215 at time 5143
Additional hops: 186
Set signal latency stall time: 14
Reenqueueing errored packet 3406 at time 5448
Additional hops: 192
Set signal latency stall time: 12
Reenqueueing errored packet 3460 at time 5550
Additional hops: 200
Set signal latency stall time: 16
Reenqueueing errored packet 3842 at time 6142
Additional hops: 207
Set signal latency stall time: 14
Reenqueueing errored packet 3903 at time 6261
Additional hops: 213
Set signal latency stall time: 12
Reenqueueing errored packet 3910 at time 6279
Additional hops: 225
Set signal latency stall time: 24
Reenqueueing errored packet 3948 at time 6366
Additional hops: 231
Set signal latency stall time: 12
Reenqueueing errored packet 4058 at time 6494
Additional hops: 244
Set signal latency stall time: 26
Reenqueueing errored packet 4201 at time 6728
Additional hops: 250
Set signal latency stall time: 12
Additional hops: 257
Set signal latency stall time: 14
Reenqueueing errored packet 4239 at time 6771
Reenqueueing errored packet 4241 at time 6777
Additional hops: 266
Set signal latency stall time: 18
Reenqueueing errored packet 4287 at time 6852
Additional hops: 269
Set signal latency stall time: 6
Reenqueueing errored packet 4359 at time 6919
Additional hops: 277
Set signal latency stall time: 16
Reenqueueing errored packet 4473 at time 7145
Additional hops: 284
Set signal latency stall time: 14
Reenqueueing errored packet 4503 at time 7196
Additional hops: 289
Set signal latency stall time: 10
Reenqueueing errored packet 4626 at time 7369
Additional hops: 297
Set signal latency stall time: 16
Reenqueueing errored packet 4697 at time 7482
Additional hops: 307
Set signal latency stall time: 20
Reenqueueing errored packet 4779 at time 7620
Additional hops: 312
Set signal latency stall time: 10
Reenqueueing errored packet 4822 at time 7661
Additional hops: 315
Set signal latency stall time: 6
Reenqueueing errored packet 4933 at time 7839
Additional hops: 324
Set signal latency stall time: 18
Reenqueueing errored packet 6016 at time 9582
Additional hops: 336
Set signal latency stall time: 24
Additional hops: 342
Set signal latency stall time: 12
Reenqueueing errored packet 6045 at time 9617
Reenqueueing errored packet 6030 at time 9623
Additional hops: 354
Set signal latency stall time: 24
Reenqueueing errored packet 6228 at time 9921
Class 0:
Packet latency average = 21.0317
	minimum = 5
	maximum = 117
Network latency average = 20.7288
	minimum = 5
	maximum = 49
Slowest packet = 10
Flit latency average = 20.7288
	minimum = 5
	maximum = 49
Slowest flit = 3985
Fragmentation average = 0
	minimum = 0
	maximum = 0
Injected packet rate average = 0.00994844
	minimum = 0.0076 (at node 37)
	maximum = 0.013 (at node 8)
Accepted packet rate average = 0.00992969
	minimum = 0.008 (at node 10)
	maximum = 0.0123 (at node 34)
Injected flit rate average = 0.00994844
	minimum = 0.0076 (at node 37)
	maximum = 0.013 (at node 8)
Accepted flit rate average= 0.00992969
	minimum = 0.008 (at node 10)
	maximum = 0.0123 (at node 34)
Injected packet length average = 1
Accepted packet length average = 1
Total in-flight flits = 12 (0 measured)
latency change    = 1
throughput change = 1
Additional hops: 362
Set signal latency stall time: 16
Reenqueueing errored packet 6319 at time 10042
Additional hops: 367
Set signal latency stall time: 10
Reenqueueing errored packet 6586 at time 10447
Additional hops: 378
Set signal latency stall time: 22
Additional hops: 387
Set signal latency stall time: 18
Reenqueueing errored packet 6783 at time 10747
Reenqueueing errored packet 6797 at time 10756
Additional hops: 397
Set signal latency stall time: 20
Reenqueueing errored packet 6954 at time 10996
Additional hops: 404
Set signal latency stall time: 14
Reenqueueing errored packet 7033 at time 11118
Additional hops: 411
Set signal latency stall time: 14
Reenqueueing errored packet 7070 at time 11163
Additional hops: 425
Set signal latency stall time: 28
Reenqueueing errored packet 7129 at time 11289
Additional hops: 433
Set signal latency stall time: 16
Reenqueueing errored packet 7379 at time 11641
Additional hops: 437
Set signal latency stall time: 8
Reenqueueing errored packet 7404 at time 11656
Additional hops: 443
Set signal latency stall time: 12
Reenqueueing errored packet 7614 at time 12002
Additional hops: 450
Set signal latency stall time: 14
Reenqueueing errored packet 7714 at time 12150
Additional hops: 463
Set signal latency stall time: 26
Reenqueueing errored packet 7728 at time 12204
Additional hops: 471
Set signal latency stall time: 16
Reenqueueing errored packet 7789 at time 12279
Additional hops: 478
Set signal latency stall time: 14
Reenqueueing errored packet 7830 at time 12336
Additional hops: 482
Set signal latency stall time: 8
Reenqueueing errored packet 7985 at time 12559
Additional hops: 494
Set signal latency stall time: 24
Reenqueueing errored packet 8279 at time 13107
Additional hops: 497
Set signal latency stall time: 6
Reenqueueing errored packet 8316 at time 13117
Additional hops: 505
Set signal latency stall time: 16
Reenqueueing errored packet 8385 at time 13264
Additional hops: 508
Set signal latency stall time: 6
Reenqueueing errored packet 8455 at time 13355
Additional hops: 520
Set signal latency stall time: 24
Reenqueueing errored packet 8639 at time 13691
Additional hops: 531
Set signal latency stall time: 22
Reenqueueing errored packet 8672 at time 13738
Additional hops: 537
Set signal latency stall time: 12
Reenqueueing errored packet 8852 at time 14017
Additional hops: 541
Set signal latency stall time: 8
Reenqueueing errored packet 8911 at time 14097
Additional hops: 554
Set signal latency stall time: 26
Reenqueueing errored packet 8967 at time 14231
Additional hops: 560
Set signal latency stall time: 12
Reenqueueing errored packet 9078 at time 14357
Additional hops: 567
Set signal latency stall time: 14
Reenqueueing errored packet 9314 at time 14760
Additional hops: 568
Set signal latency stall time: 2
Reenqueueing errored packet 9641 at time 15267
Additional hops: 573
Set signal latency stall time: 10
Reenqueueing errored packet 10270 at time 16234
Additional hops: 579
Set signal latency stall time: 12
Reenqueueing errored packet 10369 at time 16388
Additional hops: 586
Set signal latency stall time: 14
Reenqueueing errored packet 10408 at time 16455
Additional hops: 595
Set signal latency stall time: 18
Reenqueueing errored packet 10600 at time 16712
Additional hops: 602
Set signal latency stall time: 14
Reenqueueing errored packet 10708 at time 16901
Additional hops: 608
Set signal latency stall time: 12
Reenqueueing errored packet 10816 at time 17079
Additional hops: 619
Set signal latency stall time: 22
Reenqueueing errored packet 10951 at time 17335
Additional hops: 628
Set signal latency stall time: 18
Reenqueueing errored packet 11071 at time 17523
Additional hops: 634
Set signal latency stall time: 12
Reenqueueing errored packet 11223 at time 17746
Additional hops: 644
Set signal latency stall time: 20
Reenqueueing errored packet 11225 at time 17769
Additional hops: 649
Set signal latency stall time: 10
Additional hops: 652
Set signal latency stall time: 6
Reenqueueing errored packet 11388 at time 18013
Reenqueueing errored packet 11395 at time 18016
Additional hops: 661
Set signal latency stall time: 18
Reenqueueing errored packet 11415 at time 18080
Additional hops: 668
Set signal latency stall time: 14
Reenqueueing errored packet 11479 at time 18177
Additional hops: 676
Set signal latency stall time: 16
Reenqueueing errored packet 11484 at time 18194
Additional hops: 683
Set signal latency stall time: 14
Reenqueueing errored packet 11659 at time 18460
Additional hops: 691
Set signal latency stall time: 16
Reenqueueing errored packet 11963 at time 18887
Additional hops: 699
Set signal latency stall time: 16
Reenqueueing errored packet 11984 at time 18923
Additional hops: 706
Set signal latency stall time: 14
Reenqueueing errored packet 12043 at time 19017
Additional hops: 712
Set signal latency stall time: 12
Reenqueueing errored packet 12256 at time 19361
Additional hops: 717
Set signal latency stall time: 10
Reenqueueing errored packet 12438 at time 19649
Additional hops: 726
Set signal latency stall time: 18
Additional hops: 736
Set signal latency stall time: 20
Reenqueueing errored packet 12445 at time 19676
Reenqueueing errored packet 12448 at time 19686
Additional hops: 747
Set signal latency stall time: 22
Reenqueueing errored packet 12649 at time 19956
Additional hops: 752
Set signal latency stall time: 10
Reenqueueing errored packet 12674 at time 19979
Class 0:
Packet latency average = 21.0942
	minimum = 5
	maximum = 117
Network latency average = 20.7742
	minimum = 5
	maximum = 49
Slowest packet = 10
Flit latency average = 20.7742
	minimum = 5
	maximum = 49
Slowest flit = 3985
Fragmentation average = 0
	minimum = 0
	maximum = 0
Injected packet rate average = 0.0100086
	minimum = 0.00835 (at node 37)
	maximum = 0.0121 (at node 8)
Accepted packet rate average = 0.00999844
	minimum = 0.00845 (at node 36)
	maximum = 0.0114 (at node 14)
Injected flit rate average = 0.0100086
	minimum = 0.00835 (at node 37)
	maximum = 0.0121 (at node 8)
Accepted flit rate average= 0.00999844
	minimum = 0.00845 (at node 36)
	maximum = 0.0114 (at node 14)
Injected packet length average = 1
Accepted packet length average = 1
Total in-flight flits = 13 (0 measured)
latency change    = 0.00296206
throughput change = 0.00687607
Additional hops: 762
Set signal latency stall time: 20
Reenqueueing errored packet 13052 at time 20588
Additional hops: 767
Set signal latency stall time: 10
Reenqueueing errored packet 13113 at time 20659
Additional hops: 773
Set signal latency stall time: 12
Reenqueueing errored packet 13234 at time 20870
Additional hops: 778
Set signal latency stall time: 10
Reenqueueing errored packet 13397 at time 21127
Additional hops: 781
Set signal latency stall time: 6
Reenqueueing errored packet 13448 at time 21212
Additional hops: 790
Set signal latency stall time: 18
Reenqueueing errored packet 13559 at time 21407
Additional hops: 798
Set signal latency stall time: 16
Reenqueueing errored packet 13716 at time 21662
Additional hops: 805
Set signal latency stall time: 14
Reenqueueing errored packet 13888 at time 21941
Additional hops: 809
Set signal latency stall time: 8
Reenqueueing errored packet 13978 at time 22081
Additional hops: 818
Set signal latency stall time: 18
Reenqueueing errored packet 13975 at time 22102
Additional hops: 827
Set signal latency stall time: 18
Additional hops: 836
Set signal latency stall time: 18
Reenqueueing errored packet 14103 at time 22311
Reenqueueing errored packet 14105 at time 22313
Additional hops: 848
Set signal latency stall time: 24
Reenqueueing errored packet 14397 at time 22796
Additional hops: 853
Set signal latency stall time: 10
Reenqueueing errored packet 14556 at time 23007
Additional hops: 863
Set signal latency stall time: 20
Reenqueueing errored packet 14924 at time 23626
Additional hops: 868
Set signal latency stall time: 10
Reenqueueing errored packet 14966 at time 23676
Additional hops: 876
Set signal latency stall time: 16
Reenqueueing errored packet 15236 at time 24092
Additional hops: 886
Set signal latency stall time: 20
Reenqueueing errored packet 15308 at time 24217
Additional hops: 896
Set signal latency stall time: 20
Reenqueueing errored packet 15326 at time 24240
Additional hops: 902
Set signal latency stall time: 12
Reenqueueing errored packet 15374 at time 24286
Additional hops: 906
Set signal latency stall time: 8
Reenqueueing errored packet 15395 at time 24308
Additional hops: 911
Set signal latency stall time: 10
Reenqueueing errored packet 15493 at time 24427
Additional hops: 920
Set signal latency stall time: 18
Additional hops: 925
Set signal latency stall time: 10
Reenqueueing errored packet 15919 at time 25042
Reenqueueing errored packet 15908 at time 25050
Additional hops: 933
Set signal latency stall time: 16
Reenqueueing errored packet 16212 at time 25522
Additional hops: 942
Set signal latency stall time: 18
Reenqueueing errored packet 16425 at time 25851
Additional hops: 948
Set signal latency stall time: 12
Reenqueueing errored packet 16631 at time 26144
Additional hops: 955
Set signal latency stall time: 14
Reenqueueing errored packet 16677 at time 26230
Additional hops: 961
Set signal latency stall time: 12
Reenqueueing errored packet 16956 at time 26628
Additional hops: 971
Set signal latency stall time: 20
Reenqueueing errored packet 17229 at time 27125
Additional hops: 981
Set signal latency stall time: 20
Reenqueueing errored packet 17250 at time 27162
Additional hops: 987
Set signal latency stall time: 12
Reenqueueing errored packet 17320 at time 27245
Additional hops: 993
Set signal latency stall time: 12
Reenqueueing errored packet 17677 at time 27798
Additional hops: 1007
Set signal latency stall time: 28
Reenqueueing errored packet 17864 at time 28101
Additional hops: 1013
Set signal latency stall time: 12
Reenqueueing errored packet 17937 at time 28149
Additional hops: 1020
Set signal latency stall time: 14
Reenqueueing errored packet 18019 at time 28307
Additional hops: 1024
Set signal latency stall time: 8
Reenqueueing errored packet 18087 at time 28396
Additional hops: 1027
Set signal latency stall time: 6
Reenqueueing errored packet 18099 at time 28416
Additional hops: 1032
Set signal latency stall time: 10
Reenqueueing errored packet 18100 at time 28430
Additional hops: 1045
Set signal latency stall time: 26
Reenqueueing errored packet 18199 at time 28623
Additional hops: 1053
Set signal latency stall time: 16
Reenqueueing errored packet 18235 at time 28670
Additional hops: 1063
Set signal latency stall time: 20
Reenqueueing errored packet 18536 at time 29154
Additional hops: 1070
Set signal latency stall time: 14
Reenqueueing errored packet 18560 at time 29174
Additional hops: 1079
Set signal latency stall time: 18
Reenqueueing errored packet 18669 at time 29359
Additional hops: 1088
Set signal latency stall time: 18
Reenqueueing errored packet 18678 at time 29381
Additional hops: 1094
Set signal latency stall time: 12
Reenqueueing errored packet 18743 at time 29453
Additional hops: 1100
Set signal latency stall time: 12
Reenqueueing errored packet 18760 at time 29480
Additional hops: 1107
Set signal latency stall time: 14
Reenqueueing errored packet 18889 at time 29669
Additional hops: 1117
Set signal latency stall time: 20
Additional hops: 1120
Set signal latency stall time: 6
Reenqueueing errored packet 18922 at time 29731
Reenqueueing errored packet 18946 at time 29733
Additional hops: 1129
Set signal latency stall time: 18
Reenqueueing errored packet 19066 at time 29964
Additional hops: 1136
Set signal latency stall time: 14
Reenqueueing errored packet 19094 at time 29987
Class 0:
Packet latency average = 21.1286
	minimum = 5
	maximum = 117
Network latency average = 20.8105
	minimum = 5
	maximum = 48
Slowest packet = 12794
Flit latency average = 20.8105
	minimum = 5
	maximum = 48
Slowest flit = 16561
Fragmentation average = 0
	minimum = 0
	maximum = 0
Injected packet rate average = 0.0101
	minimum = 0.0079 (at node 35)
	maximum = 0.0128 (at node 37)
Accepted packet rate average = 0.0101016
	minimum = 0.0081 (at node 30)
	maximum = 0.0126 (at node 10)
Injected flit rate average = 0.0101
	minimum = 0.0079 (at node 35)
	maximum = 0.0128 (at node 37)
Accepted flit rate average= 0.0101016
	minimum = 0.0081 (at node 30)
	maximum = 0.0126 (at node 10)
Injected packet length average = 1
Accepted packet length average = 1
Total in-flight flits = 12 (0 measured)
latency change    = 0.00163081
throughput change = 0.0102088
Warmed up ...Time used is 30000 cycles
Additional hops: 1141
Set signal latency stall time: 10
Reenqueueing errored packet 19212 at time 30159
Additional hops: 1148
Set signal latency stall time: 14
Reenqueueing errored packet 19321 at time 30325
Additional hops: 1156
Set signal latency stall time: 16
Reenqueueing errored packet 19481 at time 30565
Additional hops: 1164
Set signal latency stall time: 16
Reenqueueing errored packet 19561 at time 30720
Additional hops: 1173
Set signal latency stall time: 18
Reenqueueing errored packet 19587 at time 30765
Additional hops: 1178
Set signal latency stall time: 10
Reenqueueing errored packet 19681 at time 30898
Additional hops: 1183
Set signal latency stall time: 10
Reenqueueing errored packet 19863 at time 31179
Additional hops: 1191
Set signal latency stall time: 16
Reenqueueing errored packet 19969 at time 31393
Additional hops: 1201
Set signal latency stall time: 20
Additional hops: 1208
Set signal latency stall time: 14
Reenqueueing errored packet 20033 at time 31492
Reenqueueing errored packet 20044 at time 31493
Additional hops: 1216
Set signal latency stall time: 16
Reenqueueing errored packet 20301 at time 31906
Additional hops: 1219
Set signal latency stall time: 6
Reenqueueing errored packet 20394 at time 32028
Additional hops: 1228
Set signal latency stall time: 18
Reenqueueing errored packet 20804 at time 32724
Additional hops: 1231
Set signal latency stall time: 6
Reenqueueing errored packet 20900 at time 32854
Additional hops: 1235
Set signal latency stall time: 8
Reenqueueing errored packet 21301 at time 33446
Additional hops: 1240
Set signal latency stall time: 10
Reenqueueing errored packet 21345 at time 33527
Additional hops: 1247
Set signal latency stall time: 14
Reenqueueing errored packet 21481 at time 33750
Additional hops: 1256
Set signal latency stall time: 18
Reenqueueing errored packet 21511 at time 33824
Additional hops: 1266
Set signal latency stall time: 20
Reenqueueing errored packet 21576 at time 33918
Additional hops: 1271
Set signal latency stall time: 10
Reenqueueing errored packet 21610 at time 33939
Additional hops: 1284
Set signal latency stall time: 26
Reenqueueing errored packet 21695 at time 34107
Additional hops: 1291
Set signal latency stall time: 14
Reenqueueing errored packet 21985 at time 34473
Additional hops: 1304
Set signal latency stall time: 26
Reenqueueing errored packet 22119 at time 34703
Additional hops: 1310
Set signal latency stall time: 12
Reenqueueing errored packet 22405 at time 35123
Additional hops: 1317
Set signal latency stall time: 14
Reenqueueing errored packet 22486 at time 35270
Additional hops: 1324
Set signal latency stall time: 14
Reenqueueing errored packet 22725 at time 35645
Additional hops: 1331
Set signal latency stall time: 14
Reenqueueing errored packet 22853 at time 35842
Additional hops: 1336
Set signal latency stall time: 10
Reenqueueing errored packet 22924 at time 35948
Additional hops: 1346
Set signal latency stall time: 20
Reenqueueing errored packet 22936 at time 35991
Additional hops: 1353
Set signal latency stall time: 14
Reenqueueing errored packet 23075 at time 36186
Additional hops: 1359
Set signal latency stall time: 12
Additional hops: 1366
Set signal latency stall time: 14
Reenqueueing errored packet 23208 at time 36408
Reenqueueing errored packet 23210 at time 36416
Additional hops: 1370
Set signal latency stall time: 8
Reenqueueing errored packet 23341 at time 36603
Additional hops: 1377
Set signal latency stall time: 14
Reenqueueing errored packet 23394 at time 36681
Additional hops: 1385
Set signal latency stall time: 16
Reenqueueing errored packet 23402 at time 36700
Additional hops: 1396
Set signal latency stall time: 22
Reenqueueing errored packet 23462 at time 36829
Additional hops: 1407
Set signal latency stall time: 22
Reenqueueing errored packet 23550 at time 36957
Additional hops: 1414
Set signal latency stall time: 14
Reenqueueing errored packet 23660 at time 37106
Additional hops: 1422
Set signal latency stall time: 16
Reenqueueing errored packet 24019 at time 37668
Additional hops: 1431
Set signal latency stall time: 18
Reenqueueing errored packet 24061 at time 37731
Additional hops: 1437
Set signal latency stall time: 12
Reenqueueing errored packet 24124 at time 37816
Additional hops: 1441
Set signal latency stall time: 8
Reenqueueing errored packet 24255 at time 37993
Additional hops: 1443
Set signal latency stall time: 4
Reenqueueing errored packet 24276 at time 38017
Additional hops: 1450
Set signal latency stall time: 14
Reenqueueing errored packet 24337 at time 38121
Additional hops: 1456
Set signal latency stall time: 12
Reenqueueing errored packet 24433 at time 38280
Additional hops: 1468
Set signal latency stall time: 24
Reenqueueing errored packet 24477 at time 38380
Additional hops: 1480
Set signal latency stall time: 24
Reenqueueing errored packet 24517 at time 38467
Additional hops: 1489
Set signal latency stall time: 18
Reenqueueing errored packet 24545 at time 38499
Additional hops: 1493
Set signal latency stall time: 8
Reenqueueing errored packet 24885 at time 39020
Additional hops: 1497
Set signal latency stall time: 8
Reenqueueing errored packet 25040 at time 39247
Additional hops: 1506
Set signal latency stall time: 18
Reenqueueing errored packet 25069 at time 39301
Additional hops: 1512
Set signal latency stall time: 12
Reenqueueing errored packet 25149 at time 39426
Additional hops: 1517
Set signal latency stall time: 10
Reenqueueing errored packet 25225 at time 39551
Class 0:
Packet latency average = 21.0535
	minimum = 5
	maximum = 109
Network latency average = 20.7304
	minimum = 5
	maximum = 47
Slowest packet = 19183
Flit latency average = 20.7379
	minimum = 5
	maximum = 47
Slowest flit = 20383
Fragmentation average = 0
	minimum = 0
	maximum = 0
Injected packet rate average = 0.0100984
	minimum = 0.0076 (at node 33)
	maximum = 0.0127 (at node 34)
Accepted packet rate average = 0.0100984
	minimum = 0.0079 (at node 43)
	maximum = 0.012 (at node 10)
Injected flit rate average = 0.0100984
	minimum = 0.0076 (at node 33)
	maximum = 0.0127 (at node 34)
Accepted flit rate average= 0.0100984
	minimum = 0.0079 (at node 43)
	maximum = 0.012 (at node 10)
Injected packet length average = 1
Accepted packet length average = 1
Total in-flight flits = 12 (12 measured)
latency change    = 0.00357142
throughput change = 0.000309454
Additional hops: 1521
Set signal latency stall time: 8
Reenqueueing errored packet 25560 at time 40065
Additional hops: 1525
Set signal latency stall time: 8
Reenqueueing errored packet 25635 at time 40173
Additional hops: 1534
Set signal latency stall time: 18
Reenqueueing errored packet 25681 at time 40271
Additional hops: 1542
Set signal latency stall time: 16
Reenqueueing errored packet 25896 at time 40608
Additional hops: 1547
Set signal latency stall time: 10
Reenqueueing errored packet 25935 at time 40647
Additional hops: 1551
Set signal latency stall time: 8
Reenqueueing errored packet 26051 at time 40796
Additional hops: 1559
Set signal latency stall time: 16
Reenqueueing errored packet 26106 at time 40926
Additional hops: 1562
Set signal latency stall time: 6
Reenqueueing errored packet 26284 at time 41205
Additional hops: 1565
Set signal latency stall time: 6
Reenqueueing errored packet 26391 at time 41391
Additional hops: 1574
Set signal latency stall time: 18
Reenqueueing errored packet 26696 at time 41911
Additional hops: 1579
Set signal latency stall time: 10
Reenqueueing errored packet 26788 at time 42036
Additional hops: 1587
Set signal latency stall time: 16
Reenqueueing errored packet 26877 at time 42186
Additional hops: 1592
Set signal latency stall time: 10
Reenqueueing errored packet 26953 at time 42262
Additional hops: 1600
Set signal latency stall time: 16
Reenqueueing errored packet 27022 at time 42390
Additional hops: 1603
Set signal latency stall time: 6
Reenqueueing errored packet 27071 at time 42450
Additional hops: 1608
Set signal latency stall time: 10
Reenqueueing errored packet 27103 at time 42502
Additional hops: 1613
Set signal latency stall time: 10
Reenqueueing errored packet 27234 at time 42679
Additional hops: 1621
Set signal latency stall time: 16
Reenqueueing errored packet 27273 at time 42748
Additional hops: 1630
Set signal latency stall time: 18
Reenqueueing errored packet 27353 at time 42853
Additional hops: 1642
Set signal latency stall time: 24
Reenqueueing errored packet 27515 at time 43094
Additional hops: 1651
Set signal latency stall time: 18
Reenqueueing errored packet 27578 at time 43176
Additional hops: 1662
Set signal latency stall time: 22
Reenqueueing errored packet 27667 at time 43306
Additional hops: 1666
Set signal latency stall time: 8
Reenqueueing errored packet 27760 at time 43406
Additional hops: 1672
Set signal latency stall time: 12
Reenqueueing errored packet 27809 at time 43478
Additional hops: 1677
Set signal latency stall time: 10
Reenqueueing errored packet 27989 at time 43725
Additional hops: 1682
Set signal latency stall time: 10
Additional hops: 1685
Set signal latency stall time: 6
Reenqueueing errored packet 28141 at time 43956
Reenqueueing errored packet 28135 at time 43959
Additional hops: 1692
Set signal latency stall time: 14
Reenqueueing errored packet 28695 at time 44873
Additional hops: 1701
Set signal latency stall time: 18
Reenqueueing errored packet 28715 at time 44916
Additional hops: 1709
Set signal latency stall time: 16
Reenqueueing errored packet 28739 at time 44955
Additional hops: 1719
Set signal latency stall time: 20
Reenqueueing errored packet 28823 at time 45091
Additional hops: 1725
Set signal latency stall time: 12
Reenqueueing errored packet 28871 at time 45158
Additional hops: 1732
Set signal latency stall time: 14
Reenqueueing errored packet 28915 at time 45239
Additional hops: 1736
Set signal latency stall time: 8
Reenqueueing errored packet 28985 at time 45329
Additional hops: 1746
Set signal latency stall time: 20
Reenqueueing errored packet 29007 at time 45397
Additional hops: 1752
Set signal latency stall time: 12
Reenqueueing errored packet 29052 at time 45454
Additional hops: 1760
Set signal latency stall time: 16
Reenqueueing errored packet 29256 at time 45771
Additional hops: 1773
Set signal latency stall time: 26
Reenqueueing errored packet 29304 at time 45862
Additional hops: 1785
Set signal latency stall time: 24
Reenqueueing errored packet 29393 at time 45986
Additional hops: 1794
Set signal latency stall time: 18
Reenqueueing errored packet 29446 at time 46062
Additional hops: 1800
Set signal latency stall time: 12
Reenqueueing errored packet 29531 at time 46186
Additional hops: 1806
Set signal latency stall time: 12
Reenqueueing errored packet 29927 at time 46852
Additional hops: 1813
Set signal latency stall time: 14
Reenqueueing errored packet 30002 at time 46982
Additional hops: 1822
Set signal latency stall time: 18
Reenqueueing errored packet 30236 at time 47364
Additional hops: 1831
Set signal latency stall time: 18
Reenqueueing errored packet 30518 at time 47809
Additional hops: 1838
Set signal latency stall time: 14
Reenqueueing errored packet 30613 at time 47939
Additional hops: 1844
Set signal latency stall time: 12
Reenqueueing errored packet 30682 at time 48056
Additional hops: 1851
Set signal latency stall time: 14
Reenqueueing errored packet 30724 at time 48133
Additional hops: 1857
Set signal latency stall time: 12
Reenqueueing errored packet 30959 at time 48526
Additional hops: 1866
Set signal latency stall time: 18
Reenqueueing errored packet 31072 at time 48751
Additional hops: 1876
Set signal latency stall time: 20
Reenqueueing errored packet 31306 at time 49107
Additional hops: 1880
Set signal latency stall time: 8
Reenqueueing errored packet 31368 at time 49167
Additional hops: 1883
Set signal latency stall time: 6
Reenqueueing errored packet 31650 at time 49621
Additional hops: 1888
Set signal latency stall time: 10
Reenqueueing errored packet 31833 at time 49902
Class 0:
Packet latency average = 21.0971
	minimum = 5
	maximum = 109
Network latency average = 20.7772
	minimum = 5
	maximum = 48
Slowest packet = 19183
Flit latency average = 20.7809
	minimum = 5
	maximum = 48
Slowest flit = 26485
Fragmentation average = 0
	minimum = 0
	maximum = 0
Injected packet rate average = 0.010068
	minimum = 0.00835 (at node 33)
	maximum = 0.01145 (at node 34)
Accepted packet rate average = 0.010068
	minimum = 0.00855 (at node 17)
	maximum = 0.0113 (at node 8)
Injected flit rate average = 0.010068
	minimum = 0.00835 (at node 33)
	maximum = 0.01145 (at node 34)
Accepted flit rate average= 0.010068
	minimum = 0.00855 (at node 17)
	maximum = 0.0113 (at node 8)
Injected packet length average = 1
Accepted packet length average = 1
Total in-flight flits = 12 (12 measured)
latency change    = 0.00206965
throughput change = 0.00302631
Additional hops: 1893
Set signal latency stall time: 10
Reenqueueing errored packet 32365 at time 50730
Additional hops: 1900
Set signal latency stall time: 14
Reenqueueing errored packet 32526 at time 50974
Additional hops: 1902
Set signal latency stall time: 4
Reenqueueing errored packet 32826 at time 51408
Additional hops: 1910
Set signal latency stall time: 16
Reenqueueing errored packet 32917 at time 51572
Additional hops: 1916
Set signal latency stall time: 12
Additional hops: 1927
Set signal latency stall time: 22
Reenqueueing errored packet 33023 at time 51716
Reenqueueing errored packet 33020 at time 51734
Additional hops: 1938
Set signal latency stall time: 22
Additional hops: 1946
Set signal latency stall time: 16
Reenqueueing errored packet 33192 at time 51995
Reenqueueing errored packet 33186 at time 52001
Additional hops: 1955
Set signal latency stall time: 18
Reenqueueing errored packet 33333 at time 52241
Additional hops: 1961
Set signal latency stall time: 12
Reenqueueing errored packet 33366 at time 52279
Additional hops: 1966
Set signal latency stall time: 10
Reenqueueing errored packet 33639 at time 52688
Additional hops: 1969
Set signal latency stall time: 6
Reenqueueing errored packet 33740 at time 52868
Additional hops: 1972
Set signal latency stall time: 6
Reenqueueing errored packet 34027 at time 53276
Additional hops: 1983
Set signal latency stall time: 22
Reenqueueing errored packet 34137 at time 53476
Additional hops: 2005
Set signal latency stall time: 44
Additional hops: 2008
Set signal latency stall time: 6
Reenqueueing errored packet 34200 at time 53543
Reenqueueing errored packet 34137 at time 53556
Additional hops: 2018
Set signal latency stall time: 20
Reenqueueing errored packet 34262 at time 53679
Additional hops: 2024
Set signal latency stall time: 12
Reenqueueing errored packet 34461 at time 53975
Additional hops: 2033
Set signal latency stall time: 18
Reenqueueing errored packet 34475 at time 54017
Additional hops: 2036
Set signal latency stall time: 6
Reenqueueing errored packet 34943 at time 54661
Additional hops: 2047
Set signal latency stall time: 22
Reenqueueing errored packet 34987 at time 54771
Additional hops: 2053
Set signal latency stall time: 12
Reenqueueing errored packet 35181 at time 55040
Additional hops: 2063
Set signal latency stall time: 20
Reenqueueing errored packet 35292 at time 55221
Additional hops: 2070
Set signal latency stall time: 14
Reenqueueing errored packet 35380 at time 55337
Additional hops: 2075
Set signal latency stall time: 10
Reenqueueing errored packet 35472 at time 55507
Additional hops: 2081
Set signal latency stall time: 12
Reenqueueing errored packet 35793 at time 55988
Additional hops: 2088
Set signal latency stall time: 14
Reenqueueing errored packet 36113 at time 56508
Additional hops: 2098
Set signal latency stall time: 20
Reenqueueing errored packet 36144 at time 56583
Additional hops: 2099
Set signal latency stall time: 2
Reenqueueing errored packet 36326 at time 56837
Additional hops: 2108
Set signal latency stall time: 18
Reenqueueing errored packet 36393 at time 56984
Additional hops: 2116
Set signal latency stall time: 16
Reenqueueing errored packet 36475 at time 57085
Additional hops: 2124
Set signal latency stall time: 16
Reenqueueing errored packet 36571 at time 57251
Additional hops: 2126
Set signal latency stall time: 4
Reenqueueing errored packet 36609 at time 57274
Additional hops: 2134
Set signal latency stall time: 16
Reenqueueing errored packet 36674 at time 57415
Additional hops: 2143
Set signal latency stall time: 18
Reenqueueing errored packet 36790 at time 57579
Additional hops: 2153
Set signal latency stall time: 20
Reenqueueing errored packet 37214 at time 58213
Additional hops: 2157
Set signal latency stall time: 8
Reenqueueing errored packet 37270 at time 58284
Additional hops: 2163
Set signal latency stall time: 12
Reenqueueing errored packet 37358 at time 58437
Additional hops: 2175
Set signal latency stall time: 24
Reenqueueing errored packet 37417 at time 58556
Additional hops: 2183
Set signal latency stall time: 16
Reenqueueing errored packet 37942 at time 59300
Additional hops: 2191
Set signal latency stall time: 16
Reenqueueing errored packet 38045 at time 59485
Additional hops: 2196
Set signal latency stall time: 10
Reenqueueing errored packet 38097 at time 59535
Additional hops: 2200
Set signal latency stall time: 8
Reenqueueing errored packet 38117 at time 59559
Class 0:
Packet latency average = 21.0598
	minimum = 5
	maximum = 174
Network latency average = 20.7616
	minimum = 5
	maximum = 48
Slowest packet = 19183
Flit latency average = 20.7641
	minimum = 5
	maximum = 48
Slowest flit = 26485
Fragmentation average = 0
	minimum = 0
	maximum = 0
Injected packet rate average = 0.0101151
	minimum = 0.00866667 (at node 25)
	maximum = 0.0115667 (at node 20)
Accepted packet rate average = 0.0101146
	minimum = 0.0087 (at node 17)
	maximum = 0.0112667 (at node 9)
Injected flit rate average = 0.0101151
	minimum = 0.00866667 (at node 25)
	maximum = 0.0115667 (at node 20)
Accepted flit rate average= 0.0101146
	minimum = 0.0087 (at node 17)
	maximum = 0.0112667 (at node 9)
Injected packet length average = 1
Accepted packet length average = 1
Total in-flight flits = 13 (13 measured)
latency change    = 0.00177107
throughput change = 0.00460865
Draining all recorded packets ...
Draining remaining packets ...
Time taken is 60043 cycles
====== Overall Traffic Statistics ======
====== Traffic class 0 ======
Packet latency average = 21.0595 (1 samples)
	minimum = 5 (1 samples)
	maximum = 174 (1 samples)
Network latency average = 20.7615 (1 samples)
	minimum = 5 (1 samples)
	maximum = 48 (1 samples)
Flit latency average = 20.7638 (1 samples)
	minimum = 5 (1 samples)
	maximum = 48 (1 samples)
Fragmentation average = 0 (1 samples)
	minimum = 0 (1 samples)
	maximum = 0 (1 samples)
Injected packet rate average = 0.0101151 (1 samples)
	minimum = 0.00866667 (1 samples)
	maximum = 0.0115667 (1 samples)
Accepted packet rate average = 0.0101146 (1 samples)
	minimum = 0.0087 (1 samples)
	maximum = 0.0112667 (1 samples)
Injected flit rate average = 0.0101151 (1 samples)
	minimum = 0.00866667 (1 samples)
	maximum = 0.0115667 (1 samples)
Accepted flit rate average = 0.0101146 (1 samples)
	minimum = 0.0087 (1 samples)
	maximum = 0.0112667 (1 samples)
Injected packet size average = 1 (1 samples)
Accepted packet size average = 1 (1 samples)
Hops average = 6.3017 (1 samples)
Total run time 11.5765
