BEGIN Configuration File: examples/ecc_mesh88_config_1_0.600_packet_5
// $Id$

// Copyright (c) 2007-2015, Trustees of The Leland Stanford Junior University
// All rights reserved.
//
// Redistribution and use in source and binary forms, with or without
// modification, are permitted provided that the following conditions are met:
//
// Redistributions of source code must retain the above copyright notice, this
// list of conditions and the following disclaimer.
// Redistributions in binary form must reproduce the above copyright notice,
// this list of conditions and the following disclaimer in the documentation
// and/or other materials provided with the distribution.
//
// THIS SOFTWARE IS PROVIDED BY THE COPYRIGHT HOLDERS AND CONTRIBUTORS "AS IS"
// AND ANY EXPRESS OR IMPLIED WARRANTIES, INCLUDING, BUT NOT LIMITED TO, THE
// IMPLIED WARRANTIES OF MERCHANTABILITY AND FITNESS FOR A PARTICULAR PURPOSE
// ARE DISCLAIMED. IN NO EVENT SHALL THE COPYRIGHT OWNER OR CONTRIBUTORS BE
// LIABLE FOR ANY DIRECT, INDIRECT, INCIDENTAL, SPECIAL, EXEMPLARY, OR
// CONSEQUENTIAL DAMAGES (INCLUDING, BUT NOT LIMITED TO, PROCUREMENT OF
// SUBSTITUTE GOODS OR SERVICES; LOSS OF USE, DATA, OR PROFITS; OR BUSINESS
// INTERRUPTION) HOWEVER CAUSED AND ON ANY THEORY OF LIABILITY, WHETHER IN
// CONTRACT, STRICT LIABILITY, OR TORT (INCLUDING NEGLIGENCE OR OTHERWISE)
// ARISING IN ANY WAY OUT OF THE USE OF THIS SOFTWARE, EVEN IF ADVISED OF THE
// POSSIBILITY OF SUCH DAMAGE.

// Dragonfly
//




vc_buf_size = 256;


wait_for_tail_credit = 0;

//
// Router architecture
//
vc_allocator = separable_input_first; 
sw_allocator = separable_input_first;
alloc_iters  = 1;

credit_delay   = 2;
routing_delay  = 0;
vc_alloc_delay = 1;
sw_alloc_delay = 1;
st_final_delay = 1;

input_speedup     = 1;
output_speedup    = 1;
internal_speedup  = 2.0;


warmup_periods = 3;
sim_count          = 1;

sample_period  = 10000;  


routing_function = dor;
num_vcs     = 2;

priority = none;
traffic       = uniform; 

injection_rate = 0.6;
packet_size = 1;
injection_rate_uses_flits = 1;

topology = mesh;

k  = 8;
n  = 2;

fer = 5;
ecc = link;

watch_out=-;
//watch_file = watch.txt;

ecc = packet;

stats_out = examples/ecc_mesh88_config_1_0.600_packet_5.m;

END Configuration File: examples/ecc_mesh88_config_1_0.600_packet_5
Additional hops: 9
Set signal latency stall time: 18
Additional hops: 18
Set signal latency stall time: 18
Reenqueueing errored packet 4168 at time 197
Reenqueueing errored packet 4194 at time 212
Additional hops: 28
Set signal latency stall time: 20
Reenqueueing errored packet 36379 at time 1250
Additional hops: 40
Set signal latency stall time: 24
Reenqueueing errored packet 56926 at time 2160
Additional hops: 52
Set signal latency stall time: 24
Reenqueueing errored packet 77057 at time 2825
Additional hops: 61
Set signal latency stall time: 18
Reenqueueing errored packet 84604 at time 3017
Additional hops: 67
Set signal latency stall time: 12
Reenqueueing errored packet 107449 at time 3507
Additional hops: 76
Set signal latency stall time: 18
Reenqueueing errored packet 117964 at time 3820
Additional hops: 83
Set signal latency stall time: 14
Reenqueueing errored packet 126645 at time 3853
Additional hops: 90
Set signal latency stall time: 14
Reenqueueing errored packet 132887 at time 4150
Additional hops: 95
Set signal latency stall time: 10
Reenqueueing errored packet 146360 at time 4276
Additional hops: 103
Set signal latency stall time: 16
Reenqueueing errored packet 135053 at time 4323
Additional hops: 110
Set signal latency stall time: 14
Reenqueueing errored packet 156621 at time 5068
Additional hops: 116
Set signal latency stall time: 12
Reenqueueing errored packet 197602 at time 5296
Additional hops: 127
Set signal latency stall time: 22
Reenqueueing errored packet 159825 at time 5382
Additional hops: 134
Set signal latency stall time: 14
Reenqueueing errored packet 219571 at time 6261
Additional hops: 140
Set signal latency stall time: 12
Reenqueueing errored packet 206422 at time 6489
Additional hops: 148
Set signal latency stall time: 16
Reenqueueing errored packet 200730 at time 6743
Additional hops: 150
Set signal latency stall time: 4
Reenqueueing errored packet 264548 at time 7411
Additional hops: 156
Set signal latency stall time: 12
Reenqueueing errored packet 253087 at time 7700
Additional hops: 165
Set signal latency stall time: 18
Reenqueueing errored packet 272966 at time 8273
Additional hops: 175
Set signal latency stall time: 20
Reenqueueing errored packet 244717 at time 8562
Additional hops: 182
Set signal latency stall time: 14
Class 0:
Packet latency average = 660.278
	minimum = 5
	maximum = 3647
Network latency average = 660.201
	minimum = 5
	maximum = 3636
Slowest packet = 220235
Flit latency average = 660.201
	minimum = 5
	maximum = 3636
Slowest flit = 243123
Fragmentation average = 0
	minimum = 0
	maximum = 0
Injected packet rate average = 0.593712
	minimum = 0.5547 (at node 6)
	maximum = 0.6078 (at node 19)
Accepted packet rate average = 0.510831
	minimum = 0.4936 (at node 21)
	maximum = 0.5252 (at node 14)
Injected flit rate average = 0.593712
	minimum = 0.5547 (at node 6)
	maximum = 0.6078 (at node 19)
Accepted flit rate average= 0.510831
	minimum = 0.4936 (at node 21)
	maximum = 0.5252 (at node 14)
Injected packet length average = 1
Accepted packet length average = 1
Total in-flight flits = 53053 (0 measured)
latency change    = 1
throughput change = 1
Average latency for class 0 exceeded 500 cycles. Aborting simulation.
Too many sample periods needed to converge
Simulation unstable, ending ...
Total run time 56.6505
