BEGIN Configuration File: examples/ecc_mesh88_config_1_1.000_link_4
// $Id$

// Copyright (c) 2007-2015, Trustees of The Leland Stanford Junior University
// All rights reserved.
//
// Redistribution and use in source and binary forms, with or without
// modification, are permitted provided that the following conditions are met:
//
// Redistributions of source code must retain the above copyright notice, this
// list of conditions and the following disclaimer.
// Redistributions in binary form must reproduce the above copyright notice,
// this list of conditions and the following disclaimer in the documentation
// and/or other materials provided with the distribution.
//
// THIS SOFTWARE IS PROVIDED BY THE COPYRIGHT HOLDERS AND CONTRIBUTORS "AS IS"
// AND ANY EXPRESS OR IMPLIED WARRANTIES, INCLUDING, BUT NOT LIMITED TO, THE
// IMPLIED WARRANTIES OF MERCHANTABILITY AND FITNESS FOR A PARTICULAR PURPOSE
// ARE DISCLAIMED. IN NO EVENT SHALL THE COPYRIGHT OWNER OR CONTRIBUTORS BE
// LIABLE FOR ANY DIRECT, INDIRECT, INCIDENTAL, SPECIAL, EXEMPLARY, OR
// CONSEQUENTIAL DAMAGES (INCLUDING, BUT NOT LIMITED TO, PROCUREMENT OF
// SUBSTITUTE GOODS OR SERVICES; LOSS OF USE, DATA, OR PROFITS; OR BUSINESS
// INTERRUPTION) HOWEVER CAUSED AND ON ANY THEORY OF LIABILITY, WHETHER IN
// CONTRACT, STRICT LIABILITY, OR TORT (INCLUDING NEGLIGENCE OR OTHERWISE)
// ARISING IN ANY WAY OUT OF THE USE OF THIS SOFTWARE, EVEN IF ADVISED OF THE
// POSSIBILITY OF SUCH DAMAGE.

// Dragonfly
//




vc_buf_size = 256;


wait_for_tail_credit = 0;

//
// Router architecture
//
vc_allocator = separable_input_first; 
sw_allocator = separable_input_first;
alloc_iters  = 1;

credit_delay   = 2;
routing_delay  = 0;
vc_alloc_delay = 1;
sw_alloc_delay = 1;
st_final_delay = 1;

input_speedup     = 1;
output_speedup    = 1;
internal_speedup  = 2.0;


warmup_periods = 3;
sim_count          = 1;

sample_period  = 10000;  


routing_function = dor;
num_vcs     = 2;

priority = none;
traffic       = uniform; 

injection_rate = 1.0;
packet_size = 1;
injection_rate_uses_flits = 1;

topology = mesh;

k  = 8;
n  = 2;

fer = 4;
ecc = link;

watch_out=-;
//watch_file = watch.txt;

ecc = link;

stats_out = examples/ecc_mesh88_config_1_1.000_link_4.m;

END Configuration File: examples/ecc_mesh88_config_1_1.000_link_4
7
Received nack credit for flit 125
Requeued flit 125
1
Received nack credit for flit 1762
Requeued flit 1762
2
Received nack credit for flit 2147
Requeued flit 2147
5
Received nack credit for flit 4730
Requeued flit 4730
3
Received nack credit for flit 9922
Requeued flit 9922
2
Received nack credit for flit 6969
Requeued flit 6969
1
Received nack credit for flit 14488
Requeued flit 14488
1
Received nack credit for flit 15111
Requeued flit 15111
4
Received nack credit for flit 8362
Requeued flit 8362
6
Received nack credit for flit 13385
Requeued flit 13385
2
Received nack credit for flit 22179
Requeued flit 22179
6
Received nack credit for flit 12002
Requeued flit 12002
1
Received nack credit for flit 19026
Requeued flit 19026
1
Received nack credit for flit 20625
Requeued flit 20625
1
Received nack credit for flit 22034
Requeued flit 22034
3
Received nack credit for flit 18113
Requeued flit 18113
1
Received nack credit for flit 39479
Requeued flit 39479
1
Received nack credit for flit 32526
Requeued flit 32526
2
Received nack credit for flit 45620
Requeued flit 45620
2
Received nack credit for flit 35712
Requeued flit 35712
2
Received nack credit for flit 27893
Requeued flit 27893
7
Received nack credit for flit 19768
Requeued flit 19768
1
Received nack credit for flit 43005
Requeued flit 43005
1
Received nack credit for flit 63494
Requeued flit 63494
1
Received nack credit for flit 53899
Requeued flit 53899
8
Received nack credit for flit 14334
Requeued flit 14334
1
Received nack credit for flit 69835
Requeued flit 69835
1
4
1
Received nack credit for flit 64732
Requeued flit 64732
Received nack credit for flit 48588
Requeued flit 48588
Received nack credit for flit 61663
Requeued flit 61663
1
Received nack credit for flit 69675
Requeued flit 69675
3
Received nack credit for flit 48668
Requeued flit 48668
5
Received nack credit for flit 25759
Requeued flit 25759
1
1
Received nack credit for flit 58590
Requeued flit 58590
Received nack credit for flit 88311
Requeued flit 88311
1
Received nack credit for flit 91072
Requeued flit 91072
1
1
Received nack credit for flit 71324
Requeued flit 71324
Received nack credit for flit 93951
Requeued flit 93951
1
Received nack credit for flit 82315
Requeued flit 82315
6
Received nack credit for flit 42425
Requeued flit 42425
1
Received nack credit for flit 112632
Requeued flit 112632
2
Received nack credit for flit 76868
Requeued flit 76868
1
Received nack credit for flit 118054
Requeued flit 118054
5
8
Received nack credit for flit 40462
Requeued flit 40462
Received nack credit for flit 39096
Requeued flit 39096
2
Received nack credit for flit 107972
Requeued flit 107972
1
1
Received nack credit for flit 85718
Requeued flit 85718
Received nack credit for flit 83033
Requeued flit 83033
1
Received nack credit for flit 130892
Requeued flit 130892
6
1
6
Received nack credit for flit 97642
Requeued flit 97642
Received nack credit for flit 68888
Requeued flit 68888
Received nack credit for flit 92347
Requeued flit 92347
9
Received nack credit for flit 38991
Requeued flit 38991
1
Received nack credit for flit 124092
Requeued flit 124092
6
Received nack credit for flit 109380
Requeued flit 109380
10
Received nack credit for flit 41367
Requeued flit 41367
1
Received nack credit for flit 128172
Requeued flit 128172
2
Received nack credit for flit 104328
Requeued flit 104328
1
Received nack credit for flit 136351
Requeued flit 136351
11
Received nack credit for flit 51784
Requeued flit 51784
7
3
Received nack credit for flit 59080
Requeued flit 59080
Received nack credit for flit 130651
Requeued flit 130651
1
Received nack credit for flit 140927
Requeued flit 140927
1
Received nack credit for flit 141927
Requeued flit 141927
8
Received nack credit for flit 56383
Requeued flit 56383
1
Received nack credit for flit 141601
Requeued flit 141601
1
Received nack credit for flit 146984
Requeued flit 146984
1
Received nack credit for flit 143012
Requeued flit 143012
1
Received nack credit for flit 148053
Requeued flit 148053
2
Received nack credit for flit 151624
Requeued flit 151624
5
Received nack credit for flit 155866
Requeued flit 155866
6
Received nack credit for flit 106749
Requeued flit 106749
8
Received nack credit for flit 144836
Requeued flit 144836
4
Received nack credit for flit 97919
Requeued flit 97919
4
Received nack credit for flit 165211
Requeued flit 165211
1
Received nack credit for flit 141360
Requeued flit 141360
6
Received nack credit for flit 79344
Requeued flit 79344
1
Received nack credit for flit 182090
Requeued flit 182090
1
Received nack credit for flit 159472
Requeued flit 159472
1
4
Received nack credit for flit 135777
Requeued flit 135777
Received nack credit for flit 129257
Requeued flit 129257
1
Received nack credit for flit 184993
Requeued flit 184993
2
Received nack credit for flit 134449
Requeued flit 134449
1
Received nack credit for flit 188057
Requeued flit 188057
3
Received nack credit for flit 191581
Requeued flit 191581
2
1
Received nack credit for flit 178310
Requeued flit 178310
Received nack credit for flit 179425
Requeued flit 179425
2
Received nack credit for flit 176601
Requeued flit 176601
4
Received nack credit for flit 86480
Requeued flit 86480
7
Received nack credit for flit 81839
Requeued flit 81839
3
2
1
Received nack credit for flit 181325
Requeued flit 181325
1
Received nack credit for flit 129712
Requeued flit 129712
Received nack credit for flit 183906
Requeued flit 183906
Received nack credit for flit 159393
Requeued flit 159393
5
Received nack credit for flit 176544
Requeued flit 176544
1
Received nack credit for flit 183977
Requeued flit 183977
3
Received nack credit for flit 193159
Requeued flit 193159
4
7
Received nack credit for flit 195264
Requeued flit 195264
Received nack credit for flit 127000
Requeued flit 127000
1
Received nack credit for flit 200646
Requeued flit 200646
1
Received nack credit for flit 203400
Requeued flit 203400
8
Received nack credit for flit 80985
Requeued flit 80985
2
Received nack credit for flit 205970
Requeued flit 205970
1
Received nack credit for flit 172917
Requeued flit 172917
1
Received nack credit for flit 198755
Requeued flit 198755
2
Received nack credit for flit 132530
Requeued flit 132530
3
Received nack credit for flit 158900
Requeued flit 158900
2
Received nack credit for flit 157525
Requeued flit 157525
1
Received nack credit for flit 203612
Requeued flit 203612
8
6
Received nack credit for flit 184592
Requeued flit 184592
Received nack credit for flit 110079
Requeued flit 110079
3
Received nack credit for flit 114408
Requeued flit 114408
8
Received nack credit for flit 186621
Requeued flit 186621
1
Received nack credit for flit 218740
Requeued flit 218740
4
Received nack credit for flit 98752
Requeued flit 98752
1
Received nack credit for flit 217184
Requeued flit 217184
5
Received nack credit for flit 223232
Requeued flit 223232
1
Received nack credit for flit 191705
Requeued flit 191705
4
Received nack credit for flit 100134
Requeued flit 100134
8
Received nack credit for flit 198720
Requeued flit 198720
1
Received nack credit for flit 198445
Requeued flit 198445
3
3
Received nack credit for flit 136016
Requeued flit 136016
Received nack credit for flit 192299
Requeued flit 192299
3
Received nack credit for flit 170707
Requeued flit 170707
8
Received nack credit for flit 215732
Requeued flit 215732
3
Received nack credit for flit 112721
Requeued flit 112721
6
Received nack credit for flit 229301
Requeued flit 229301
7
Received nack credit for flit 162084
Requeued flit 162084
2
Received nack credit for flit 205888
Requeued flit 205888
2
Received nack credit for flit 245381
Requeued flit 245381
6
Received nack credit for flit 113222
Requeued flit 113222
3
Received nack credit for flit 136826
Requeued flit 136826
6
Received nack credit for flit 125960
Requeued flit 125960
1
Received nack credit for flit 246047
Requeued flit 246047
1
Received nack credit for flit 224759
Requeued flit 224759
2
Received nack credit for flit 190021
Requeued flit 190021
3
Received nack credit for flit 157111
Requeued flit 157111
1
Received nack credit for flit 222398
Requeued flit 222398
3
Received nack credit for flit 213730
Requeued flit 213730
1
Received nack credit for flit 258418
Requeued flit 258418
3
Received nack credit for flit 258294
Requeued flit 258294
1
Received nack credit for flit 262166
Requeued flit 262166
6
Received nack credit for flit 118921
Requeued flit 118921
2
7
Received nack credit for flit 245294
Requeued flit 245294
Received nack credit for flit 205220
Requeued flit 205220
4
1
Received nack credit for flit 260038
Requeued flit 260038
7
Received nack credit for flit 239201
Requeued flit 239201
Received nack credit for flit 126074
Requeued flit 126074
9
Received nack credit for flit 116062
Requeued flit 116062
1
Received nack credit for flit 237151
Requeued flit 237151
1
Received nack credit for flit 264945
Requeued flit 264945
1
Received nack credit for flit 282126
Requeued flit 282126
9
Received nack credit for flit 133207
Requeued flit 133207
4
Received nack credit for flit 256319
Requeued flit 256319
2
Received nack credit for flit 220115
Requeued flit 220115
2
Received nack credit for flit 184308
Requeued flit 184308
2
1
Received nack credit for flit 274643
Requeued flit 274643
Received nack credit for flit 283627
Requeued flit 283627
1
4
Received nack credit for flit 284100
Requeued flit 284100
Received nack credit for flit 256030
Requeued flit 256030
1
1
Received nack credit for flit 262549
Requeued flit 262549
Received nack credit for flit 288528
Requeued flit 288528
1
Received nack credit for flit 282374
Requeued flit 282374
5
Received nack credit for flit 232653
Requeued flit 232653
4
Received nack credit for flit 270302
Requeued flit 270302
1
Received nack credit for flit 298259
Requeued flit 298259
1
Received nack credit for flit 297229
Requeued flit 297229
1
Received nack credit for flit 278145
Requeued flit 278145
2
Received nack credit for flit 292240
Requeued flit 292240
11
Received nack credit for flit 272747
Requeued flit 272747
11
Received nack credit for flit 243910
Requeued flit 243910
3
Received nack credit for flit 298317
Requeued flit 298317
1
Received nack credit for flit 298091
Requeued flit 298091
1
Received nack credit for flit 307873
Requeued flit 307873
7
Received nack credit for flit 280638
Requeued flit 280638
3
Received nack credit for flit 256666
Requeued flit 256666
1
Received nack credit for flit 282793
Requeued flit 282793
2
Received nack credit for flit 222393
Requeued flit 222393
3
Received nack credit for flit 258862
Requeued flit 258862
4
3
Received nack credit for flit 226433
Requeued flit 226433
Received nack credit for flit 210901
Requeued flit 210901
8
Received nack credit for flit 274803
Requeued flit 274803
4
Received nack credit for flit 302610
Requeued flit 302610
1
Received nack credit for flit 306688
Requeued flit 306688
13
Received nack credit for flit 139230
Requeued flit 139230
1
Received nack credit for flit 287441
Requeued flit 287441
1
Received nack credit for flit 295131
Requeued flit 295131
2
Received nack credit for flit 294168
Requeued flit 294168
1
Received nack credit for flit 297939
Requeued flit 297939
4
Received nack credit for flit 296129
Requeued flit 296129
2
Received nack credit for flit 314079
Requeued flit 314079
1
Received nack credit for flit 305723
Requeued flit 305723
1
Received nack credit for flit 329109
Requeued flit 329109
1
Received nack credit for flit 304775
Requeued flit 304775
6
Received nack credit for flit 329783
Requeued flit 329783
3
Received nack credit for flit 308394
Requeued flit 308394
6
Received nack credit for flit 319083
Requeued flit 319083
4
Received nack credit for flit 177805
Requeued flit 177805
3
Received nack credit for flit 285971
Requeued flit 285971
2
Received nack credit for flit 308624
Requeued flit 308624
5
Received nack credit for flit 316696
Requeued flit 316696
1
7
7
Received nack credit for flit 318925
Requeued flit 318925
Received nack credit for flit 225879
Requeued flit 225879
Received nack credit for flit 215440
Requeued flit 215440
1
Received nack credit for flit 318873
Requeued flit 318873
6
Received nack credit for flit 233238
Requeued flit 233238
1
Received nack credit for flit 323982
Requeued flit 323982
2
Received nack credit for flit 327257
Requeued flit 327257
2
Received nack credit for flit 296255
Requeued flit 296255
2
Received nack credit for flit 323607
Requeued flit 323607
5
Received nack credit for flit 341134
Requeued flit 341134
1
Received nack credit for flit 358213
Requeued flit 358213
1
Received nack credit for flit 329534
Requeued flit 329534
1
Received nack credit for flit 359052
Requeued flit 359052
2
Received nack credit for flit 328909
Requeued flit 328909
1
Received nack credit for flit 368301
Requeued flit 368301
Class 0:
Packet latency average = 2024.99
	minimum = 5
	maximum = 7331
Network latency average = 1620.64
	minimum = 5
	maximum = 7331
Slowest packet = 160189
Flit latency average = 1620.64
	minimum = 5
	maximum = 7331
Slowest flit = 160189
Fragmentation average = 0
	minimum = 0
	maximum = 0
Injected packet rate average = 0.618081
	minimum = 0.412 (at node 41)
	maximum = 0.9075 (at node 19)
Accepted packet rate average = 0.5004
	minimum = 0.4747 (at node 21)
	maximum = 0.5157 (at node 28)
Injected flit rate average = 0.618081
	minimum = 0.412 (at node 41)
	maximum = 0.9075 (at node 19)
Accepted flit rate average= 0.5004
	minimum = 0.4747 (at node 21)
	maximum = 0.5157 (at node 28)
Injected packet length average = 1
Accepted packet length average = 1
Total in-flight flits = 75352 (0 measured)
latency change    = 1
throughput change = 1
Average latency for class 0 exceeded 500 cycles. Aborting simulation.
Too many sample periods needed to converge
Simulation unstable, ending ...
Total run time 60.3878
