BEGIN Configuration File: examples/ecc_mesh88_config_1_0.150_link_4
// $Id$

// Copyright (c) 2007-2015, Trustees of The Leland Stanford Junior University
// All rights reserved.
//
// Redistribution and use in source and binary forms, with or without
// modification, are permitted provided that the following conditions are met:
//
// Redistributions of source code must retain the above copyright notice, this
// list of conditions and the following disclaimer.
// Redistributions in binary form must reproduce the above copyright notice,
// this list of conditions and the following disclaimer in the documentation
// and/or other materials provided with the distribution.
//
// THIS SOFTWARE IS PROVIDED BY THE COPYRIGHT HOLDERS AND CONTRIBUTORS "AS IS"
// AND ANY EXPRESS OR IMPLIED WARRANTIES, INCLUDING, BUT NOT LIMITED TO, THE
// IMPLIED WARRANTIES OF MERCHANTABILITY AND FITNESS FOR A PARTICULAR PURPOSE
// ARE DISCLAIMED. IN NO EVENT SHALL THE COPYRIGHT OWNER OR CONTRIBUTORS BE
// LIABLE FOR ANY DIRECT, INDIRECT, INCIDENTAL, SPECIAL, EXEMPLARY, OR
// CONSEQUENTIAL DAMAGES (INCLUDING, BUT NOT LIMITED TO, PROCUREMENT OF
// SUBSTITUTE GOODS OR SERVICES; LOSS OF USE, DATA, OR PROFITS; OR BUSINESS
// INTERRUPTION) HOWEVER CAUSED AND ON ANY THEORY OF LIABILITY, WHETHER IN
// CONTRACT, STRICT LIABILITY, OR TORT (INCLUDING NEGLIGENCE OR OTHERWISE)
// ARISING IN ANY WAY OUT OF THE USE OF THIS SOFTWARE, EVEN IF ADVISED OF THE
// POSSIBILITY OF SUCH DAMAGE.

// Dragonfly
//




vc_buf_size = 256;


wait_for_tail_credit = 0;

//
// Router architecture
//
vc_allocator = separable_input_first; 
sw_allocator = separable_input_first;
alloc_iters  = 1;

credit_delay   = 2;
routing_delay  = 0;
vc_alloc_delay = 1;
sw_alloc_delay = 1;
st_final_delay = 1;

input_speedup     = 1;
output_speedup    = 1;
internal_speedup  = 2.0;


warmup_periods = 3;
sim_count          = 1;

sample_period  = 10000;  


routing_function = dor;
num_vcs     = 2;

priority = none;
traffic       = uniform; 

injection_rate = 0.15;
packet_size = 1;
injection_rate_uses_flits = 1;

topology = mesh;

k  = 8;
n  = 2;

fer = 4;
ecc = link;

watch_out=-;
//watch_file = watch.txt;

ecc = link;

stats_out = examples/ecc_mesh88_config_1_0.150_link_4.m;

END Configuration File: examples/ecc_mesh88_config_1_0.150_link_4
2
7
Received nack credit for flit 467
Requeued flit 467
Received nack credit for flit 367
Requeued flit 367
3
Received nack credit for flit 1583
Requeued flit 1583
5
Received nack credit for flit 3939
Requeued flit 3939
4
Received nack credit for flit 5889
Requeued flit 5889
5
Received nack credit for flit 7295
Requeued flit 7295
9
Received nack credit for flit 7272
Requeued flit 7272
6
Received nack credit for flit 8567
Requeued flit 8567
3
Received nack credit for flit 10202
Requeued flit 10202
4
Received nack credit for flit 11072
Requeued flit 11072
2
Received nack credit for flit 12850
Requeued flit 12850
3
Received nack credit for flit 21555
Requeued flit 21555
1
Received nack credit for flit 25953
Requeued flit 25953
1
Received nack credit for flit 27455
Requeued flit 27455
7
Received nack credit for flit 27880
Requeued flit 27880
4
Received nack credit for flit 31746
Requeued flit 31746
4
Received nack credit for flit 33007
Requeued flit 33007
1
Received nack credit for flit 35314
Requeued flit 35314
4
1
Received nack credit for flit 37484
Requeued flit 37484
Received nack credit for flit 37581
Requeued flit 37581
2
Received nack credit for flit 38194
Requeued flit 38194
1
Received nack credit for flit 40188
Requeued flit 40188
6
Received nack credit for flit 44179
Requeued flit 44179
12
Received nack credit for flit 44705
Requeued flit 44705
7
Received nack credit for flit 44926
Requeued flit 44926
5
Received nack credit for flit 46980
Requeued flit 46980
1
Received nack credit for flit 49273
Requeued flit 49273
4
Received nack credit for flit 49607
Requeued flit 49607
1
Received nack credit for flit 49826
Requeued flit 49826
2
Received nack credit for flit 50837
Requeued flit 50837
3
Received nack credit for flit 51878
Requeued flit 51878
1
Received nack credit for flit 54076
Requeued flit 54076
4
1
Received nack credit for flit 56712
Requeued flit 56712
Received nack credit for flit 56978
Requeued flit 56978
6
Received nack credit for flit 60244
Requeued flit 60244
8
Received nack credit for flit 60329
Requeued flit 60329
2
Received nack credit for flit 60622
Requeued flit 60622
2
Received nack credit for flit 61105
Requeued flit 61105
4
Received nack credit for flit 64323
Requeued flit 64323
1
Received nack credit for flit 70093
Requeued flit 70093
2
Received nack credit for flit 72553
Requeued flit 72553
8
Received nack credit for flit 72525
Requeued flit 72525
1
Received nack credit for flit 74273
Requeued flit 74273
1
Received nack credit for flit 76574
Requeued flit 76574
9
Received nack credit for flit 76581
Requeued flit 76581
1
Received nack credit for flit 77916
Requeued flit 77916
2
Received nack credit for flit 80101
Requeued flit 80101
1
Received nack credit for flit 80908
Requeued flit 80908
8
Received nack credit for flit 82796
Requeued flit 82796
1
Received nack credit for flit 85755
Requeued flit 85755
2
Received nack credit for flit 90263
Requeued flit 90263
1
Received nack credit for flit 91019
Requeued flit 91019
6
Received nack credit for flit 93608
Requeued flit 93608
4
Received nack credit for flit 95003
Requeued flit 95003
Class 0:
Packet latency average = 21.1533
	minimum = 5
	maximum = 62
Network latency average = 21.1533
	minimum = 5
	maximum = 62
Slowest packet = 56712
Flit latency average = 21.1533
	minimum = 5
	maximum = 62
Slowest flit = 56712
Fragmentation average = 0
	minimum = 0
	maximum = 0
Injected packet rate average = 0.150169
	minimum = 0.1407 (at node 55)
	maximum = 0.1593 (at node 26)
Accepted packet rate average = 0.149873
	minimum = 0.1415 (at node 52)
	maximum = 0.1562 (at node 53)
Injected flit rate average = 0.150169
	minimum = 0.1407 (at node 55)
	maximum = 0.1593 (at node 26)
Accepted flit rate average= 0.149873
	minimum = 0.1415 (at node 52)
	maximum = 0.1562 (at node 53)
Injected packet length average = 1
Accepted packet length average = 1
Total in-flight flits = 189 (0 measured)
latency change    = 1
throughput change = 1
5
1
Received nack credit for flit 96901
Requeued flit 96901
Received nack credit for flit 96727
Requeued flit 96727
1
Received nack credit for flit 98943
Requeued flit 98943
7
Received nack credit for flit 100277
Requeued flit 100277
1
Received nack credit for flit 103486
Requeued flit 103486
1
Received nack credit for flit 104210
Requeued flit 104210
1
Received nack credit for flit 106669
Requeued flit 106669
1
Received nack credit for flit 108528
Requeued flit 108528
2
Received nack credit for flit 110760
Requeued flit 110760
8
Received nack credit for flit 110803
Requeued flit 110803
1
Received nack credit for flit 111723
Requeued flit 111723
1
Received nack credit for flit 114544
Requeued flit 114544
6
Received nack credit for flit 115917
Requeued flit 115917
4
Received nack credit for flit 117510
Requeued flit 117510
1
Received nack credit for flit 118436
Requeued flit 118436
1
Received nack credit for flit 118511
Requeued flit 118511
9
Received nack credit for flit 118901
Requeued flit 118901
5
Received nack credit for flit 119896
Requeued flit 119896
1
Received nack credit for flit 121615
Requeued flit 121615
3
Received nack credit for flit 128284
Requeued flit 128284
2
Received nack credit for flit 129175
Requeued flit 129175
2
Received nack credit for flit 130308
Requeued flit 130308
4
Received nack credit for flit 132002
Requeued flit 132002
9
1
Received nack credit for flit 132107
Requeued flit 132107
Received nack credit for flit 132461
Requeued flit 132461
2
Received nack credit for flit 133063
Requeued flit 133063
5
Received nack credit for flit 134778
Requeued flit 134778
5
Received nack credit for flit 136603
Requeued flit 136603
7
Received nack credit for flit 138198
Requeued flit 138198
8
Received nack credit for flit 138198
Requeued flit 138198
1
Received nack credit for flit 139387
Requeued flit 139387
5
Received nack credit for flit 140219
Requeued flit 140219
2
Received nack credit for flit 141420
Requeued flit 141420
1
Received nack credit for flit 146056
Requeued flit 146056
4
Received nack credit for flit 146619
Requeued flit 146619
1
Received nack credit for flit 147630
Requeued flit 147630
1
1
Received nack credit for flit 148960
Requeued flit 148960
Received nack credit for flit 148908
Requeued flit 148908
5
Received nack credit for flit 149804
Requeued flit 149804
2
1
Received nack credit for flit 150317
Requeued flit 150317
Received nack credit for flit 150254
Requeued flit 150254
7
Received nack credit for flit 152663
Requeued flit 152663
1
Received nack credit for flit 154612
Requeued flit 154612
5
Received nack credit for flit 159758
Requeued flit 159758
6
Received nack credit for flit 159897
Requeued flit 159897
1
Received nack credit for flit 161270
Requeued flit 161270
7
Received nack credit for flit 162650
Requeued flit 162650
1
Received nack credit for flit 164487
Requeued flit 164487
1
Received nack credit for flit 165260
Requeued flit 165260
4
Received nack credit for flit 165331
Requeued flit 165331
1
3
Received nack credit for flit 165595
Requeued flit 165595
Received nack credit for flit 165565
Requeued flit 165565
2
Received nack credit for flit 166858
Requeued flit 166858
1
Received nack credit for flit 168291
Requeued flit 168291
2
Received nack credit for flit 168936
Requeued flit 168936
3
Received nack credit for flit 169518
Requeued flit 169518
1
Received nack credit for flit 172254
Requeued flit 172254
1
Received nack credit for flit 173866
Requeued flit 173866
10
Received nack credit for flit 176069
Requeued flit 176069
4
Received nack credit for flit 180629
Requeued flit 180629
5
Received nack credit for flit 182340
Requeued flit 182340
5
Received nack credit for flit 183811
Requeued flit 183811
3
Received nack credit for flit 186444
Requeued flit 186444
6
Received nack credit for flit 186662
Requeued flit 186662
3
Received nack credit for flit 186874
Requeued flit 186874
2
Received nack credit for flit 189699
Requeued flit 189699
Class 0:
Packet latency average = 21.1431
	minimum = 5
	maximum = 65
Network latency average = 21.1431
	minimum = 5
	maximum = 65
Slowest packet = 138198
Flit latency average = 21.1431
	minimum = 5
	maximum = 65
Slowest flit = 138198
Fragmentation average = 0
	minimum = 0
	maximum = 0
Injected packet rate average = 0.149671
	minimum = 0.1421 (at node 12)
	maximum = 0.15705 (at node 58)
Accepted packet rate average = 0.14951
	minimum = 0.1443 (at node 33)
	maximum = 0.1561 (at node 53)
Injected flit rate average = 0.149671
	minimum = 0.1421 (at node 12)
	maximum = 0.15705 (at node 58)
Accepted flit rate average= 0.14951
	minimum = 0.1443 (at node 33)
	maximum = 0.1561 (at node 53)
Injected packet length average = 1
Accepted packet length average = 1
Total in-flight flits = 206 (0 measured)
latency change    = 0.000483587
throughput change = 0.00242981
7
Received nack credit for flit 192516
Requeued flit 192516
4
Received nack credit for flit 197097
Requeued flit 197097
2
Received nack credit for flit 198205
Requeued flit 198205
3
2
Received nack credit for flit 201050
Requeued flit 201050
Received nack credit for flit 201117
Requeued flit 201117
1
Received nack credit for flit 203398
Requeued flit 203398
3
Received nack credit for flit 203506
Requeued flit 203506
5
Received nack credit for flit 210213
Requeued flit 210213
1
Received nack credit for flit 213536
Requeued flit 213536
6
Received nack credit for flit 217958
Requeued flit 217958
10
Received nack credit for flit 218053
Requeued flit 218053
8
Received nack credit for flit 218789
Requeued flit 218789
5
Received nack credit for flit 219011
Requeued flit 219011
1
Received nack credit for flit 222704
Requeued flit 222704
8
Received nack credit for flit 222998
Requeued flit 222998
1
Received nack credit for flit 224882
Requeued flit 224882
1
Received nack credit for flit 225090
Requeued flit 225090
4
Received nack credit for flit 227996
Requeued flit 227996
4
Received nack credit for flit 229816
Requeued flit 229816
10
Received nack credit for flit 231187
Requeued flit 231187
4
Received nack credit for flit 233002
Requeued flit 233002
1
Received nack credit for flit 236897
Requeued flit 236897
6
Received nack credit for flit 236918
Requeued flit 236918
1
Received nack credit for flit 237613
Requeued flit 237613
1
Received nack credit for flit 237820
Requeued flit 237820
5
3
Received nack credit for flit 238486
Requeued flit 238486
Received nack credit for flit 238399
Requeued flit 238399
2
Received nack credit for flit 239512
Requeued flit 239512
1
Received nack credit for flit 239784
Requeued flit 239784
11
5
Received nack credit for flit 240012
Requeued flit 240012
Received nack credit for flit 240342
Requeued flit 240342
2
Received nack credit for flit 242374
Requeued flit 242374
11
Received nack credit for flit 242632
Requeued flit 242632
3
Received nack credit for flit 245480
Requeued flit 245480
2
1
Received nack credit for flit 247887
Requeued flit 247887
Received nack credit for flit 247941
Requeued flit 247941
6
Received nack credit for flit 253782
Requeued flit 253782
3
Received nack credit for flit 254259
Requeued flit 254259
4
Received nack credit for flit 256262
Requeued flit 256262
3
Received nack credit for flit 260715
Requeued flit 260715
6
3
Received nack credit for flit 261164
Requeued flit 261164
Received nack credit for flit 261325
Requeued flit 261325
6
Received nack credit for flit 266710
Requeued flit 266710
5
Received nack credit for flit 267851
Requeued flit 267851
2
Received nack credit for flit 268488
Requeued flit 268488
7
Received nack credit for flit 269366
Requeued flit 269366
1
Received nack credit for flit 271271
Requeued flit 271271
7
Received nack credit for flit 272078
Requeued flit 272078
4
Received nack credit for flit 273853
Requeued flit 273853
2
Received nack credit for flit 274149
Requeued flit 274149
5
Received nack credit for flit 276822
Requeued flit 276822
8
Received nack credit for flit 282849
Requeued flit 282849
1
Received nack credit for flit 283630
Requeued flit 283630
Class 0:
Packet latency average = 21.1912
	minimum = 5
	maximum = 60
Network latency average = 21.1912
	minimum = 5
	maximum = 60
Slowest packet = 240012
Flit latency average = 21.1912
	minimum = 5
	maximum = 60
Slowest flit = 240012
Fragmentation average = 0
	minimum = 0
	maximum = 0
Injected packet rate average = 0.149592
	minimum = 0.1419 (at node 12)
	maximum = 0.1575 (at node 3)
Accepted packet rate average = 0.149591
	minimum = 0.1394 (at node 21)
	maximum = 0.156 (at node 28)
Injected flit rate average = 0.149592
	minimum = 0.1419 (at node 12)
	maximum = 0.1575 (at node 3)
Accepted flit rate average= 0.149591
	minimum = 0.1394 (at node 21)
	maximum = 0.156 (at node 28)
Injected packet length average = 1
Accepted packet length average = 1
Total in-flight flits = 207 (0 measured)
latency change    = 0.00226963
throughput change = 0.000537926
Warmed up ...Time used is 30000 cycles
2
Received nack credit for flit 291656
Requeued flit 291656
2
11
Received nack credit for flit 292340
Requeued flit 292340
1
Received nack credit for flit 292130
Requeued flit 292130
Received nack credit for flit 292454
Requeued flit 292454
2
1
Received nack credit for flit 293157
Requeued flit 293157
Received nack credit for flit 293229
Requeued flit 293229
7
Received nack credit for flit 293636
Requeued flit 293636
5
Received nack credit for flit 294453
Requeued flit 294453
2
Received nack credit for flit 295757
Requeued flit 295757
2
Received nack credit for flit 298084
Requeued flit 298084
1
Received nack credit for flit 300937
Requeued flit 300937
2
Received nack credit for flit 308684
Requeued flit 308684
2
3
Received nack credit for flit 308857
Requeued flit 308857
Received nack credit for flit 308848
Requeued flit 308848
6
Received nack credit for flit 309938
Requeued flit 309938
1
Received nack credit for flit 311951
Requeued flit 311951
1
Received nack credit for flit 312306
Requeued flit 312306
4
Received nack credit for flit 313956
Requeued flit 313956
2
Received nack credit for flit 317165
Requeued flit 317165
6
Received nack credit for flit 325541
Requeued flit 325541
1
Received nack credit for flit 326386
Requeued flit 326386
5
Received nack credit for flit 326462
Requeued flit 326462
12
Received nack credit for flit 329995
Requeued flit 329995
5
Received nack credit for flit 331203
Requeued flit 331203
2
Received nack credit for flit 331572
Requeued flit 331572
2
Received nack credit for flit 332425
Requeued flit 332425
9
Received nack credit for flit 336604
Requeued flit 336604
6
Received nack credit for flit 341056
Requeued flit 341056
1
Received nack credit for flit 342593
Requeued flit 342593
4
Received nack credit for flit 343388
Requeued flit 343388
6
Received nack credit for flit 343494
Requeued flit 343494
5
Received nack credit for flit 344294
Requeued flit 344294
2
Received nack credit for flit 346362
Requeued flit 346362
5
Received nack credit for flit 348447
Requeued flit 348447
3
Received nack credit for flit 349353
Requeued flit 349353
2
Received nack credit for flit 349680
Requeued flit 349680
1
Received nack credit for flit 350055
Requeued flit 350055
3
Received nack credit for flit 351709
Requeued flit 351709
2
Received nack credit for flit 352246
Requeued flit 352246
4
Received nack credit for flit 353340
Requeued flit 353340
4
Received nack credit for flit 354442
Requeued flit 354442
6
Received nack credit for flit 355348
Requeued flit 355348
1
Received nack credit for flit 358848
Requeued flit 358848
4
Received nack credit for flit 360645
Requeued flit 360645
2
Received nack credit for flit 368198
Requeued flit 368198
9
Received nack credit for flit 368694
Requeued flit 368694
5
Received nack credit for flit 369031
Requeued flit 369031
1
Received nack credit for flit 370403
Requeued flit 370403
5
Received nack credit for flit 371190
Requeued flit 371190
1
Received nack credit for flit 371967
Requeued flit 371967
1
Received nack credit for flit 372088
Requeued flit 372088
3
Received nack credit for flit 373030
Requeued flit 373030
4
Received nack credit for flit 374203
Requeued flit 374203
1
Received nack credit for flit 374995
Requeued flit 374995
6
Received nack credit for flit 379233
Requeued flit 379233
8
Received nack credit for flit 380461
Requeued flit 380461
2
Received nack credit for flit 382532
Requeued flit 382532
3
Received nack credit for flit 382701
Requeued flit 382701
Class 0:
Packet latency average = 21.1828
	minimum = 5
	maximum = 60
Network latency average = 21.1828
	minimum = 5
	maximum = 60
Slowest packet = 329995
Flit latency average = 21.1899
	minimum = 5
	maximum = 60
Slowest flit = 329995
Fragmentation average = 0
	minimum = 0
	maximum = 0
Injected packet rate average = 0.149844
	minimum = 0.1415 (at node 22)
	maximum = 0.1572 (at node 48)
Accepted packet rate average = 0.149863
	minimum = 0.144 (at node 1)
	maximum = 0.1617 (at node 52)
Injected flit rate average = 0.149844
	minimum = 0.1415 (at node 22)
	maximum = 0.1572 (at node 48)
Accepted flit rate average= 0.149863
	minimum = 0.144 (at node 1)
	maximum = 0.1617 (at node 52)
Injected packet length average = 1
Accepted packet length average = 1
Total in-flight flits = 195 (195 measured)
latency change    = 0.000394953
throughput change = 0.00181416
2
Received nack credit for flit 383579
Requeued flit 383579
1
Received nack credit for flit 384877
Requeued flit 384877
1
Received nack credit for flit 385986
Requeued flit 385986
2
Received nack credit for flit 386626
Requeued flit 386626
7
Received nack credit for flit 386905
Requeued flit 386905
1
Received nack credit for flit 390378
Requeued flit 390378
4
4
Received nack credit for flit 392216
Requeued flit 392216
Received nack credit for flit 392218
Requeued flit 392218
1
Received nack credit for flit 393569
Requeued flit 393569
1
Received nack credit for flit 393678
Requeued flit 393678
1
Received nack credit for flit 394066
Requeued flit 394066
6
Received nack credit for flit 397739
Requeued flit 397739
5
Received nack credit for flit 398986
Requeued flit 398986
5
Received nack credit for flit 399701
Requeued flit 399701
4
4
Received nack credit for flit 400190
Requeued flit 400190
Received nack credit for flit 400288
Requeued flit 400288
2
Received nack credit for flit 402052
Requeued flit 402052
2
Received nack credit for flit 404142
Requeued flit 404142
3
Received nack credit for flit 405869
Requeued flit 405869
2
2
Received nack credit for flit 406808
Requeued flit 406808
Received nack credit for flit 406851
Requeued flit 406851
1
Received nack credit for flit 407091
Requeued flit 407091
2
1
Received nack credit for flit 407482
Requeued flit 407482
4
Received nack credit for flit 407644
Requeued flit 407644
Received nack credit for flit 407572
Requeued flit 407572
2
Received nack credit for flit 408029
Requeued flit 408029
2
Received nack credit for flit 412877
Requeued flit 412877
6
Received nack credit for flit 414570
Requeued flit 414570
1
Received nack credit for flit 417411
Requeued flit 417411
3
Received nack credit for flit 417576
Requeued flit 417576
8
Received nack credit for flit 417820
Requeued flit 417820
2
Received nack credit for flit 419272
Requeued flit 419272
9
Received nack credit for flit 419708
Requeued flit 419708
1
Received nack credit for flit 420200
Requeued flit 420200
2
Received nack credit for flit 424172
Requeued flit 424172
1
Received nack credit for flit 425945
Requeued flit 425945
4
Received nack credit for flit 426843
Requeued flit 426843
1
Received nack credit for flit 427596
Requeued flit 427596
5
Received nack credit for flit 429149
Requeued flit 429149
2
Received nack credit for flit 430107
Requeued flit 430107
4
Received nack credit for flit 431562
Requeued flit 431562
1
Received nack credit for flit 432710
Requeued flit 432710
3
Received nack credit for flit 433225
Requeued flit 433225
3
Received nack credit for flit 434855
Requeued flit 434855
2
Received nack credit for flit 435093
Requeued flit 435093
1
Received nack credit for flit 440015
Requeued flit 440015
1
Received nack credit for flit 441708
Requeued flit 441708
4
Received nack credit for flit 442252
Requeued flit 442252
3
Received nack credit for flit 445636
Requeued flit 445636
1
Received nack credit for flit 446193
Requeued flit 446193
7
Received nack credit for flit 448450
Requeued flit 448450
3
Received nack credit for flit 449668
Requeued flit 449668
4
Received nack credit for flit 449964
Requeued flit 449964
1
Received nack credit for flit 452113
Requeued flit 452113
1
Received nack credit for flit 455066
Requeued flit 455066
1
1
Received nack credit for flit 455271
Requeued flit 455271
Received nack credit for flit 455362
Requeued flit 455362
2
Received nack credit for flit 456980
Requeued flit 456980
3
Received nack credit for flit 459798
Requeued flit 459798
1
8
Received nack credit for flit 461716
Requeued flit 461716
Received nack credit for flit 461574
Requeued flit 461574
2
Received nack credit for flit 462175
Requeued flit 462175
1
Received nack credit for flit 462517
Requeued flit 462517
1
Received nack credit for flit 462718
Requeued flit 462718
7
Received nack credit for flit 463495
Requeued flit 463495
4
Received nack credit for flit 467546
Requeued flit 467546
1
9
Received nack credit for flit 469834
Requeued flit 469834
Received nack credit for flit 469648
Requeued flit 469648
2
Received nack credit for flit 470593
Requeued flit 470593
3
Received nack credit for flit 472429
Requeued flit 472429
5
Class 0:
Packet latency average = 21.1696
	minimum = 5
	maximum = 67
Network latency average = 21.1696
	minimum = 5
	maximum = 67
Slowest packet = 407572
Flit latency average = 21.1731
	minimum = 5
	maximum = 67
Slowest flit = 407572
Fragmentation average = 0
	minimum = 0
	maximum = 0
Injected packet rate average = 0.1498
	minimum = 0.1445 (at node 22)
	maximum = 0.15615 (at node 48)
Accepted packet rate average = 0.149813
	minimum = 0.14215 (at node 1)
	maximum = 0.1576 (at node 57)
Injected flit rate average = 0.1498
	minimum = 0.1445 (at node 22)
	maximum = 0.15615 (at node 48)
Accepted flit rate average= 0.149813
	minimum = 0.14215 (at node 1)
	maximum = 0.1576 (at node 57)
Injected packet length average = 1
Accepted packet length average = 1
Total in-flight flits = 190 (190 measured)
latency change    = 0.000626203
throughput change = 0.000328534
Received nack credit for flit 478894
Requeued flit 478894
9
Received nack credit for flit 480607
Requeued flit 480607
5
Received nack credit for flit 482489
Requeued flit 482489
7
Received nack credit for flit 484549
Requeued flit 484549
5
Received nack credit for flit 484953
Requeued flit 484953
4
Received nack credit for flit 486168
Requeued flit 486168
5
Received nack credit for flit 486710
Requeued flit 486710
1
1
Received nack credit for flit 489362
Requeued flit 489362
Received nack credit for flit 489405
Requeued flit 489405
4
Received nack credit for flit 489626
Requeued flit 489626
4
Received nack credit for flit 491796
Requeued flit 491796
4
Received nack credit for flit 495164
Requeued flit 495164
2
Received nack credit for flit 495851
Requeued flit 495851
1
Received nack credit for flit 496612
Requeued flit 496612
9
Received nack credit for flit 501363
Requeued flit 501363
1
Received nack credit for flit 502091
Requeued flit 502091
8
Received nack credit for flit 506217
Requeued flit 506217
2
Received nack credit for flit 506973
Requeued flit 506973
1
Received nack credit for flit 508677
Requeued flit 508677
1
Received nack credit for flit 508870
Requeued flit 508870
5
Received nack credit for flit 510079
Requeued flit 510079
3
Received nack credit for flit 511203
Requeued flit 511203
4
Received nack credit for flit 512689
Requeued flit 512689
3
Received nack credit for flit 513845
Requeued flit 513845
3
Received nack credit for flit 517222
Requeued flit 517222
1
Received nack credit for flit 517657
Requeued flit 517657
5
Received nack credit for flit 520575
Requeued flit 520575
2
Received nack credit for flit 525130
Requeued flit 525130
1
Received nack credit for flit 526018
Requeued flit 526018
7
Received nack credit for flit 528030
Requeued flit 528030
3
Received nack credit for flit 533423
Requeued flit 533423
2
Received nack credit for flit 536888
Requeued flit 536888
6
Received nack credit for flit 540327
Requeued flit 540327
2
Received nack credit for flit 540604
Requeued flit 540604
1
Received nack credit for flit 545489
Requeued flit 545489
1
Received nack credit for flit 547823
Requeued flit 547823
5
Received nack credit for flit 554915
Requeued flit 554915
4
Received nack credit for flit 556495
Requeued flit 556495
7
Received nack credit for flit 558635
Requeued flit 558635
4
3
Received nack credit for flit 559211
Requeued flit 559211
Received nack credit for flit 559285
Requeued flit 559285
1
Received nack credit for flit 559497
Requeued flit 559497
1
Received nack credit for flit 562668
Requeued flit 562668
1
4
Received nack credit for flit 572720
Requeued flit 572720
Received nack credit for flit 572674
Requeued flit 572674
6
Received nack credit for flit 572972
Requeued flit 572972
3
Received nack credit for flit 573735
Requeued flit 573735
8
Received nack credit for flit 574046
Requeued flit 574046
10
Class 0:
Packet latency average = 21.1633
	minimum = 5
	maximum = 67
Network latency average = 21.1633
	minimum = 5
	maximum = 67
Slowest packet = 407572
Flit latency average = 21.1657
	minimum = 5
	maximum = 67
Slowest flit = 407572
Fragmentation average = 0
	minimum = 0
	maximum = 0
Injected packet rate average = 0.150197
	minimum = 0.146467 (at node 22)
	maximum = 0.156233 (at node 48)
Accepted packet rate average = 0.150202
	minimum = 0.1447 (at node 54)
	maximum = 0.156833 (at node 57)
Injected flit rate average = 0.150197
	minimum = 0.146467 (at node 22)
	maximum = 0.156233 (at node 48)
Accepted flit rate average= 0.150202
	minimum = 0.1447 (at node 54)
	maximum = 0.156833 (at node 57)
Injected packet length average = 1
Accepted packet length average = 1
Total in-flight flits = 198 (198 measured)
latency change    = 0.000296036
throughput change = 0.00258507
Draining all recorded packets ...
Received nack credit for flit 575350
Requeued flit 575350
Draining remaining packets ...
Time taken is 60077 cycles
====== Overall Traffic Statistics ======
====== Traffic class 0 ======
Packet latency average = 21.1655 (1 samples)
	minimum = 5 (1 samples)
	maximum = 67 (1 samples)
Network latency average = 21.1655 (1 samples)
	minimum = 5 (1 samples)
	maximum = 67 (1 samples)
Flit latency average = 21.1676 (1 samples)
	minimum = 5 (1 samples)
	maximum = 67 (1 samples)
Fragmentation average = 0 (1 samples)
	minimum = 0 (1 samples)
	maximum = 0 (1 samples)
Injected packet rate average = 0.150197 (1 samples)
	minimum = 0.146467 (1 samples)
	maximum = 0.156233 (1 samples)
Accepted packet rate average = 0.150202 (1 samples)
	minimum = 0.1447 (1 samples)
	maximum = 0.156833 (1 samples)
Injected flit rate average = 0.150197 (1 samples)
	minimum = 0.146467 (1 samples)
	maximum = 0.156233 (1 samples)
Accepted flit rate average = 0.150202 (1 samples)
	minimum = 0.1447 (1 samples)
	maximum = 0.156833 (1 samples)
Injected packet size average = 1 (1 samples)
Accepted packet size average = 1 (1 samples)
Hops average = 6.25173 (1 samples)
Total run time 70.0964
