BEGIN Configuration File: examples/ecc_mesh88_config_1_0.150_packet_5
// $Id$

// Copyright (c) 2007-2015, Trustees of The Leland Stanford Junior University
// All rights reserved.
//
// Redistribution and use in source and binary forms, with or without
// modification, are permitted provided that the following conditions are met:
//
// Redistributions of source code must retain the above copyright notice, this
// list of conditions and the following disclaimer.
// Redistributions in binary form must reproduce the above copyright notice,
// this list of conditions and the following disclaimer in the documentation
// and/or other materials provided with the distribution.
//
// THIS SOFTWARE IS PROVIDED BY THE COPYRIGHT HOLDERS AND CONTRIBUTORS "AS IS"
// AND ANY EXPRESS OR IMPLIED WARRANTIES, INCLUDING, BUT NOT LIMITED TO, THE
// IMPLIED WARRANTIES OF MERCHANTABILITY AND FITNESS FOR A PARTICULAR PURPOSE
// ARE DISCLAIMED. IN NO EVENT SHALL THE COPYRIGHT OWNER OR CONTRIBUTORS BE
// LIABLE FOR ANY DIRECT, INDIRECT, INCIDENTAL, SPECIAL, EXEMPLARY, OR
// CONSEQUENTIAL DAMAGES (INCLUDING, BUT NOT LIMITED TO, PROCUREMENT OF
// SUBSTITUTE GOODS OR SERVICES; LOSS OF USE, DATA, OR PROFITS; OR BUSINESS
// INTERRUPTION) HOWEVER CAUSED AND ON ANY THEORY OF LIABILITY, WHETHER IN
// CONTRACT, STRICT LIABILITY, OR TORT (INCLUDING NEGLIGENCE OR OTHERWISE)
// ARISING IN ANY WAY OUT OF THE USE OF THIS SOFTWARE, EVEN IF ADVISED OF THE
// POSSIBILITY OF SUCH DAMAGE.

// Dragonfly
//




vc_buf_size = 256;


wait_for_tail_credit = 0;

//
// Router architecture
//
vc_allocator = separable_input_first; 
sw_allocator = separable_input_first;
alloc_iters  = 1;

credit_delay   = 2;
routing_delay  = 0;
vc_alloc_delay = 1;
sw_alloc_delay = 1;
st_final_delay = 1;

input_speedup     = 1;
output_speedup    = 1;
internal_speedup  = 2.0;


warmup_periods = 3;
sim_count          = 1;

sample_period  = 10000;  


routing_function = dor;
num_vcs     = 2;

priority = none;
traffic       = uniform; 

injection_rate = 0.15;
packet_size = 1;
injection_rate_uses_flits = 1;

topology = mesh;

k  = 8;
n  = 2;

fer = 5;
ecc = link;

watch_out=-;
//watch_file = watch.txt;

ecc = packet;

stats_out = examples/ecc_mesh88_config_1_0.150_packet_5.m;

END Configuration File: examples/ecc_mesh88_config_1_0.150_packet_5
Additional hops: 10
Set signal latency stall time: 20
Reenqueueing errored packet 3991 at time 477
Additional hops: 17
Set signal latency stall time: 14
Reenqueueing errored packet 10124 at time 1094
Additional hops: 26
Set signal latency stall time: 18
Reenqueueing errored packet 21017 at time 2239
Additional hops: 37
Set signal latency stall time: 22
Reenqueueing errored packet 44764 at time 4745
Additional hops: 43
Set signal latency stall time: 12
Reenqueueing errored packet 56423 at time 5945
Additional hops: 55
Set signal latency stall time: 24
Reenqueueing errored packet 69673 at time 7352
Additional hops: 59
Set signal latency stall time: 8
Reenqueueing errored packet 85585 at time 8967
Additional hops: 66
Set signal latency stall time: 14
Reenqueueing errored packet 92568 at time 9708
Additional hops: 76
Set signal latency stall time: 20
Reenqueueing errored packet 93588 at time 9826
Class 0:
Packet latency average = 21.1545
	minimum = 5
	maximum = 102
Network latency average = 21.1502
	minimum = 5
	maximum = 51
Slowest packet = 1015
Flit latency average = 21.1502
	minimum = 5
	maximum = 51
Slowest flit = 1015
Fragmentation average = 0
	minimum = 0
	maximum = 0
Injected packet rate average = 0.149677
	minimum = 0.1416 (at node 5)
	maximum = 0.158 (at node 53)
Accepted packet rate average = 0.149381
	minimum = 0.1409 (at node 52)
	maximum = 0.1555 (at node 53)
Injected flit rate average = 0.149677
	minimum = 0.1416 (at node 5)
	maximum = 0.158 (at node 53)
Accepted flit rate average= 0.149381
	minimum = 0.1409 (at node 52)
	maximum = 0.1555 (at node 53)
Injected packet length average = 1
Accepted packet length average = 1
Total in-flight flits = 189 (0 measured)
latency change    = 1
throughput change = 1
Additional hops: 84
Set signal latency stall time: 16
Reenqueueing errored packet 96656 at time 10134
Additional hops: 90
Set signal latency stall time: 12
Reenqueueing errored packet 101731 at time 10636
Additional hops: 96
Set signal latency stall time: 12
Reenqueueing errored packet 117359 at time 12274
Additional hops: 102
Set signal latency stall time: 12
Reenqueueing errored packet 118563 at time 12397
Additional hops: 109
Set signal latency stall time: 14
Reenqueueing errored packet 132069 at time 13815
Additional hops: 119
Set signal latency stall time: 20
Reenqueueing errored packet 139912 at time 14649
Additional hops: 124
Set signal latency stall time: 10
Reenqueueing errored packet 170634 at time 17869
Additional hops: 135
Set signal latency stall time: 22
Reenqueueing errored packet 190043 at time 19929
Class 0:
Packet latency average = 21.1471
	minimum = 5
	maximum = 102
Network latency average = 21.1432
	minimum = 5
	maximum = 51
Slowest packet = 1015
Flit latency average = 21.1432
	minimum = 5
	maximum = 51
Slowest flit = 1015
Fragmentation average = 0
	minimum = 0
	maximum = 0
Injected packet rate average = 0.149468
	minimum = 0.14255 (at node 5)
	maximum = 0.15455 (at node 53)
Accepted packet rate average = 0.149307
	minimum = 0.14395 (at node 33)
	maximum = 0.15565 (at node 1)
Injected flit rate average = 0.149468
	minimum = 0.14255 (at node 5)
	maximum = 0.15455 (at node 53)
Accepted flit rate average= 0.149307
	minimum = 0.14395 (at node 33)
	maximum = 0.15565 (at node 1)
Injected packet length average = 1
Accepted packet length average = 1
Total in-flight flits = 206 (0 measured)
latency change    = 0.000352248
throughput change = 0.000497088
Additional hops: 140
Set signal latency stall time: 10
Reenqueueing errored packet 191365 at time 20035
Additional hops: 149
Set signal latency stall time: 18
Reenqueueing errored packet 195028 at time 20438
Additional hops: 156
Set signal latency stall time: 14
Reenqueueing errored packet 220410 at time 23047
Additional hops: 166
Set signal latency stall time: 20
Reenqueueing errored packet 236803 at time 24786
Additional hops: 169
Set signal latency stall time: 6
Reenqueueing errored packet 244535 at time 25541
Additional hops: 175
Set signal latency stall time: 12
Reenqueueing errored packet 261206 at time 27282
Additional hops: 184
Set signal latency stall time: 18
Reenqueueing errored packet 261921 at time 27369
Additional hops: 195
Set signal latency stall time: 22
Reenqueueing errored packet 267781 at time 27978
Class 0:
Packet latency average = 21.1366
	minimum = 5
	maximum = 97
Network latency average = 21.1332
	minimum = 5
	maximum = 52
Slowest packet = 194568
Flit latency average = 21.1332
	minimum = 5
	maximum = 52
Slowest flit = 274632
Fragmentation average = 0
	minimum = 0
	maximum = 0
Injected packet rate average = 0.150633
	minimum = 0.1401 (at node 2)
	maximum = 0.1586 (at node 1)
Accepted packet rate average = 0.150645
	minimum = 0.1406 (at node 21)
	maximum = 0.157 (at node 28)
Injected flit rate average = 0.150633
	minimum = 0.1401 (at node 2)
	maximum = 0.1586 (at node 1)
Accepted flit rate average= 0.150645
	minimum = 0.1406 (at node 21)
	maximum = 0.157 (at node 28)
Injected packet length average = 1
Accepted packet length average = 1
Total in-flight flits = 198 (0 measured)
latency change    = 0.000494699
throughput change = 0.00888366
Warmed up ...Time used is 30000 cycles
Additional hops: 201
Set signal latency stall time: 12
Reenqueueing errored packet 308249 at time 32147
Additional hops: 210
Set signal latency stall time: 18
Reenqueueing errored packet 314409 at time 32794
Additional hops: 225
Set signal latency stall time: 30
Reenqueueing errored packet 330717 at time 34514
Additional hops: 231
Set signal latency stall time: 12
Reenqueueing errored packet 341398 at time 35577
Class 0:
Packet latency average = 21.1353
	minimum = 5
	maximum = 128
Network latency average = 21.1333
	minimum = 5
	maximum = 53
Slowest packet = 303282
Flit latency average = 21.1369
	minimum = 5
	maximum = 53
Slowest flit = 355121
Fragmentation average = 0
	minimum = 0
	maximum = 0
Injected packet rate average = 0.150975
	minimum = 0.1416 (at node 50)
	maximum = 0.1575 (at node 44)
Accepted packet rate average = 0.150942
	minimum = 0.145 (at node 1)
	maximum = 0.1628 (at node 52)
Injected flit rate average = 0.150975
	minimum = 0.1416 (at node 50)
	maximum = 0.1575 (at node 44)
Accepted flit rate average= 0.150942
	minimum = 0.145 (at node 1)
	maximum = 0.1628 (at node 52)
Injected packet length average = 1
Accepted packet length average = 1
Total in-flight flits = 219 (219 measured)
latency change    = 6.15734e-05
throughput change = 0.00196681
Additional hops: 239
Set signal latency stall time: 16
Reenqueueing errored packet 400839 at time 41759
Additional hops: 241
Set signal latency stall time: 4
Reenqueueing errored packet 409514 at time 42613
Additional hops: 246
Set signal latency stall time: 10
Reenqueueing errored packet 418238 at time 43541
Additional hops: 249
Set signal latency stall time: 6
Reenqueueing errored packet 435846 at time 45371
Additional hops: 253
Set signal latency stall time: 8
Reenqueueing errored packet 438195 at time 45622
Additional hops: 259
Set signal latency stall time: 12
Reenqueueing errored packet 461831 at time 48091
Class 0:
Packet latency average = 21.1389
	minimum = 5
	maximum = 128
Network latency average = 21.1371
	minimum = 5
	maximum = 53
Slowest packet = 303282
Flit latency average = 21.1389
	minimum = 5
	maximum = 53
Slowest flit = 355121
Fragmentation average = 0
	minimum = 0
	maximum = 0
Injected packet rate average = 0.150742
	minimum = 0.1457 (at node 46)
	maximum = 0.1555 (at node 44)
Accepted packet rate average = 0.150709
	minimum = 0.143 (at node 1)
	maximum = 0.1587 (at node 57)
Injected flit rate average = 0.150742
	minimum = 0.1457 (at node 46)
	maximum = 0.1555 (at node 44)
Accepted flit rate average= 0.150709
	minimum = 0.143 (at node 1)
	maximum = 0.1587 (at node 57)
Injected packet length average = 1
Accepted packet length average = 1
Total in-flight flits = 241 (241 measured)
latency change    = 0.000171338
throughput change = 0.00154997
Additional hops: 264
Set signal latency stall time: 10
Reenqueueing errored packet 483475 at time 50324
Additional hops: 268
Set signal latency stall time: 8
Reenqueueing errored packet 498963 at time 51917
Additional hops: 275
Set signal latency stall time: 14
Reenqueueing errored packet 511406 at time 53224
Additional hops: 283
Set signal latency stall time: 16
Reenqueueing errored packet 526802 at time 54815
Additional hops: 291
Set signal latency stall time: 16
Reenqueueing errored packet 545178 at time 56706
Additional hops: 302
Set signal latency stall time: 22
Reenqueueing errored packet 556146 at time 57884
Additional hops: 310
Set signal latency stall time: 16
Reenqueueing errored packet 562131 at time 58500
Additional hops: 316
Set signal latency stall time: 12
Reenqueueing errored packet 563291 at time 58607
Additional hops: 321
Set signal latency stall time: 10
Reenqueueing errored packet 564223 at time 58702
Additional hops: 329
Set signal latency stall time: 16
Reenqueueing errored packet 573981 at time 59733
Additional hops: 336
Set signal latency stall time: 14
Reenqueueing errored packet 576425 at time 59980
Class 0:
Packet latency average = 21.142
	minimum = 5
	maximum = 128
Network latency average = 21.1394
	minimum = 5
	maximum = 53
Slowest packet = 303282
Flit latency average = 21.1407
	minimum = 5
	maximum = 53
Slowest flit = 355121
Fragmentation average = 0
	minimum = 0
	maximum = 0
Injected packet rate average = 0.150678
	minimum = 0.144733 (at node 46)
	maximum = 0.154567 (at node 53)
Accepted packet rate average = 0.150674
	minimum = 0.145 (at node 54)
	maximum = 0.157133 (at node 57)
Injected flit rate average = 0.150678
	minimum = 0.144733 (at node 46)
	maximum = 0.154567 (at node 53)
Accepted flit rate average= 0.150674
	minimum = 0.145 (at node 54)
	maximum = 0.157133 (at node 57)
Injected packet length average = 1
Accepted packet length average = 1
Total in-flight flits = 205 (205 measured)
latency change    = 0.000145676
throughput change = 0.00022987
Draining all recorded packets ...
Draining remaining packets ...
Time taken is 60077 cycles
====== Overall Traffic Statistics ======
====== Traffic class 0 ======
Packet latency average = 21.1436 (1 samples)
	minimum = 5 (1 samples)
	maximum = 128 (1 samples)
Network latency average = 21.1409 (1 samples)
	minimum = 5 (1 samples)
	maximum = 53 (1 samples)
Flit latency average = 21.1426 (1 samples)
	minimum = 5 (1 samples)
	maximum = 53 (1 samples)
Fragmentation average = 0 (1 samples)
	minimum = 0 (1 samples)
	maximum = 0 (1 samples)
Injected packet rate average = 0.150678 (1 samples)
	minimum = 0.144733 (1 samples)
	maximum = 0.154567 (1 samples)
Accepted packet rate average = 0.150674 (1 samples)
	minimum = 0.145 (1 samples)
	maximum = 0.157133 (1 samples)
Injected flit rate average = 0.150678 (1 samples)
	minimum = 0.144733 (1 samples)
	maximum = 0.154567 (1 samples)
Accepted flit rate average = 0.150674 (1 samples)
	minimum = 0.145 (1 samples)
	maximum = 0.157133 (1 samples)
Injected packet size average = 1 (1 samples)
Accepted packet size average = 1 (1 samples)
Hops average = 6.24505 (1 samples)
Total run time 68.4958
