BEGIN Configuration File: examples/ecc_mesh88_config_1_0.100_packet_5
// $Id$

// Copyright (c) 2007-2015, Trustees of The Leland Stanford Junior University
// All rights reserved.
//
// Redistribution and use in source and binary forms, with or without
// modification, are permitted provided that the following conditions are met:
//
// Redistributions of source code must retain the above copyright notice, this
// list of conditions and the following disclaimer.
// Redistributions in binary form must reproduce the above copyright notice,
// this list of conditions and the following disclaimer in the documentation
// and/or other materials provided with the distribution.
//
// THIS SOFTWARE IS PROVIDED BY THE COPYRIGHT HOLDERS AND CONTRIBUTORS "AS IS"
// AND ANY EXPRESS OR IMPLIED WARRANTIES, INCLUDING, BUT NOT LIMITED TO, THE
// IMPLIED WARRANTIES OF MERCHANTABILITY AND FITNESS FOR A PARTICULAR PURPOSE
// ARE DISCLAIMED. IN NO EVENT SHALL THE COPYRIGHT OWNER OR CONTRIBUTORS BE
// LIABLE FOR ANY DIRECT, INDIRECT, INCIDENTAL, SPECIAL, EXEMPLARY, OR
// CONSEQUENTIAL DAMAGES (INCLUDING, BUT NOT LIMITED TO, PROCUREMENT OF
// SUBSTITUTE GOODS OR SERVICES; LOSS OF USE, DATA, OR PROFITS; OR BUSINESS
// INTERRUPTION) HOWEVER CAUSED AND ON ANY THEORY OF LIABILITY, WHETHER IN
// CONTRACT, STRICT LIABILITY, OR TORT (INCLUDING NEGLIGENCE OR OTHERWISE)
// ARISING IN ANY WAY OUT OF THE USE OF THIS SOFTWARE, EVEN IF ADVISED OF THE
// POSSIBILITY OF SUCH DAMAGE.

// Dragonfly
//




vc_buf_size = 256;


wait_for_tail_credit = 0;

//
// Router architecture
//
vc_allocator = separable_input_first; 
sw_allocator = separable_input_first;
alloc_iters  = 1;

credit_delay   = 2;
routing_delay  = 0;
vc_alloc_delay = 1;
sw_alloc_delay = 1;
st_final_delay = 1;

input_speedup     = 1;
output_speedup    = 1;
internal_speedup  = 2.0;


warmup_periods = 3;
sim_count          = 1;

sample_period  = 10000;  


routing_function = dor;
num_vcs     = 2;

priority = none;
traffic       = uniform; 

injection_rate = 0.1;
packet_size = 1;
injection_rate_uses_flits = 1;

topology = mesh;

k  = 8;
n  = 2;

fer = 5;
ecc = link;

watch_out=-;
//watch_file = watch.txt;

ecc = packet;

stats_out = examples/ecc_mesh88_config_1_0.100_packet_5.m;

END Configuration File: examples/ecc_mesh88_config_1_0.100_packet_5
Additional hops: 10
Set signal latency stall time: 20
Reenqueueing errored packet 2647 at time 477
Additional hops: 13
Set signal latency stall time: 6
Reenqueueing errored packet 8211 at time 1309
Additional hops: 21
Set signal latency stall time: 16
Reenqueueing errored packet 17203 at time 2761
Additional hops: 26
Set signal latency stall time: 10
Reenqueueing errored packet 36065 at time 5690
Additional hops: 29
Set signal latency stall time: 6
Reenqueueing errored packet 45516 at time 7159
Class 0:
Packet latency average = 21.0244
	minimum = 5
	maximum = 87
Network latency average = 21.0218
	minimum = 5
	maximum = 50
Slowest packet = 654
Flit latency average = 21.0218
	minimum = 5
	maximum = 50
Slowest flit = 62960
Fragmentation average = 0
	minimum = 0
	maximum = 0
Injected packet rate average = 0.0997469
	minimum = 0.0938 (at node 7)
	maximum = 0.1059 (at node 39)
Accepted packet rate average = 0.0995641
	minimum = 0.0929 (at node 36)
	maximum = 0.1049 (at node 10)
Injected flit rate average = 0.0997469
	minimum = 0.0938 (at node 7)
	maximum = 0.1059 (at node 39)
Accepted flit rate average= 0.0995641
	minimum = 0.0929 (at node 36)
	maximum = 0.1049 (at node 10)
Injected packet length average = 1
Accepted packet length average = 1
Total in-flight flits = 117 (0 measured)
latency change    = 1
throughput change = 1
Additional hops: 36
Set signal latency stall time: 14
Reenqueueing errored packet 73230 at time 11504
Additional hops: 46
Set signal latency stall time: 20
Reenqueueing errored packet 75245 at time 11839
Additional hops: 54
Set signal latency stall time: 16
Reenqueueing errored packet 77856 at time 12232
Additional hops: 63
Set signal latency stall time: 18
Reenqueueing errored packet 80067 at time 12569
Additional hops: 72
Set signal latency stall time: 18
Reenqueueing errored packet 112965 at time 17706
Additional hops: 85
Set signal latency stall time: 26
Reenqueueing errored packet 113755 at time 17845
Additional hops: 94
Set signal latency stall time: 18
Reenqueueing errored packet 124467 at time 19516
Class 0:
Packet latency average = 21.0091
	minimum = 5
	maximum = 111
Network latency average = 21.0051
	minimum = 5
	maximum = 50
Slowest packet = 654
Flit latency average = 21.0051
	minimum = 5
	maximum = 50
Slowest flit = 62960
Fragmentation average = 0
	minimum = 0
	maximum = 0
Injected packet rate average = 0.0998617
	minimum = 0.0943 (at node 44)
	maximum = 0.10735 (at node 38)
Accepted packet rate average = 0.0997516
	minimum = 0.0956 (at node 46)
	maximum = 0.10395 (at node 1)
Injected flit rate average = 0.0998617
	minimum = 0.0943 (at node 44)
	maximum = 0.10735 (at node 38)
Accepted flit rate average= 0.0997516
	minimum = 0.0956 (at node 46)
	maximum = 0.10395 (at node 1)
Injected packet length average = 1
Accepted packet length average = 1
Total in-flight flits = 141 (0 measured)
latency change    = 0.000726935
throughput change = 0.00187967
Additional hops: 101
Set signal latency stall time: 14
Reenqueueing errored packet 157505 at time 24698
Additional hops: 112
Set signal latency stall time: 22
Reenqueueing errored packet 166980 at time 26193
Additional hops: 120
Set signal latency stall time: 16
Reenqueueing errored packet 177814 at time 27873
Class 0:
Packet latency average = 20.9502
	minimum = 5
	maximum = 93
Network latency average = 20.948
	minimum = 5
	maximum = 50
Slowest packet = 154585
Flit latency average = 20.948
	minimum = 5
	maximum = 50
Slowest flit = 160369
Fragmentation average = 0
	minimum = 0
	maximum = 0
Injected packet rate average = 0.0997094
	minimum = 0.0928 (at node 6)
	maximum = 0.1048 (at node 44)
Accepted packet rate average = 0.0997203
	minimum = 0.0931 (at node 57)
	maximum = 0.1059 (at node 8)
Injected flit rate average = 0.0997094
	minimum = 0.0928 (at node 6)
	maximum = 0.1048 (at node 44)
Accepted flit rate average= 0.0997203
	minimum = 0.0931 (at node 57)
	maximum = 0.1059 (at node 8)
Injected packet length average = 1
Accepted packet length average = 1
Total in-flight flits = 134 (0 measured)
latency change    = 0.0028159
throughput change = 0.000313376
Warmed up ...Time used is 30000 cycles
Additional hops: 126
Set signal latency stall time: 12
Reenqueueing errored packet 210679 at time 33039
Additional hops: 132
Set signal latency stall time: 12
Reenqueueing errored packet 211436 at time 33153
Additional hops: 144
Set signal latency stall time: 24
Reenqueueing errored packet 219260 at time 34391
Additional hops: 148
Set signal latency stall time: 8
Reenqueueing errored packet 247285 at time 38726
Additional hops: 152
Set signal latency stall time: 8
Reenqueueing errored packet 250014 at time 39159
Additional hops: 159
Set signal latency stall time: 14
Reenqueueing errored packet 253148 at time 39662
Class 0:
Packet latency average = 21.053
	minimum = 5
	maximum = 101
Network latency average = 21.0496
	minimum = 5
	maximum = 49
Slowest packet = 201458
Flit latency average = 21.0554
	minimum = 5
	maximum = 49
Slowest flit = 201458
Fragmentation average = 0
	minimum = 0
	maximum = 0
Injected packet rate average = 0.0999016
	minimum = 0.094 (at node 51)
	maximum = 0.1063 (at node 7)
Accepted packet rate average = 0.0998953
	minimum = 0.0922 (at node 21)
	maximum = 0.1055 (at node 28)
Injected flit rate average = 0.0999016
	minimum = 0.094 (at node 51)
	maximum = 0.1063 (at node 7)
Accepted flit rate average= 0.0998953
	minimum = 0.0922 (at node 21)
	maximum = 0.1055 (at node 28)
Injected packet length average = 1
Accepted packet length average = 1
Total in-flight flits = 138 (138 measured)
latency change    = 0.00488502
throughput change = 0.00175183
Additional hops: 164
Set signal latency stall time: 10
Reenqueueing errored packet 266452 at time 41738
Additional hops: 174
Set signal latency stall time: 20
Reenqueueing errored packet 275012 at time 43101
Additional hops: 181
Set signal latency stall time: 14
Reenqueueing errored packet 297734 at time 46634
Class 0:
Packet latency average = 20.9829
	minimum = 5
	maximum = 101
Network latency average = 20.9803
	minimum = 5
	maximum = 50
Slowest packet = 201458
Flit latency average = 20.9833
	minimum = 5
	maximum = 50
Slowest flit = 271524
Fragmentation average = 0
	minimum = 0
	maximum = 0
Injected packet rate average = 0.0997992
	minimum = 0.09605 (at node 40)
	maximum = 0.10425 (at node 46)
Accepted packet rate average = 0.0997938
	minimum = 0.09285 (at node 21)
	maximum = 0.10495 (at node 28)
Injected flit rate average = 0.0997992
	minimum = 0.09605 (at node 40)
	maximum = 0.10425 (at node 46)
Accepted flit rate average= 0.0997938
	minimum = 0.09285 (at node 21)
	maximum = 0.10495 (at node 28)
Injected packet length average = 1
Accepted packet length average = 1
Total in-flight flits = 141 (141 measured)
latency change    = 0.00333973
throughput change = 0.00101772
Additional hops: 188
Set signal latency stall time: 14
Reenqueueing errored packet 322871 at time 50592
Additional hops: 196
Set signal latency stall time: 16
Reenqueueing errored packet 329609 at time 51646
Additional hops: 199
Set signal latency stall time: 6
Reenqueueing errored packet 381142 at time 59689
Class 0:
Packet latency average = 20.987
	minimum = 5
	maximum = 101
Network latency average = 20.9847
	minimum = 5
	maximum = 50
Slowest packet = 201458
Flit latency average = 20.9867
	minimum = 5
	maximum = 50
Slowest flit = 271524
Fragmentation average = 0
	minimum = 0
	maximum = 0
Injected packet rate average = 0.0997781
	minimum = 0.0955333 (at node 6)
	maximum = 0.1038 (at node 30)
Accepted packet rate average = 0.0997813
	minimum = 0.0947 (at node 21)
	maximum = 0.105033 (at node 52)
Injected flit rate average = 0.0997781
	minimum = 0.0955333 (at node 6)
	maximum = 0.1038 (at node 30)
Accepted flit rate average= 0.0997813
	minimum = 0.0947 (at node 21)
	maximum = 0.105033 (at node 52)
Injected packet length average = 1
Accepted packet length average = 1
Total in-flight flits = 128 (128 measured)
latency change    = 0.000193712
throughput change = 0.000125274
Draining all recorded packets ...
Draining remaining packets ...
Time taken is 60084 cycles
====== Overall Traffic Statistics ======
====== Traffic class 0 ======
Packet latency average = 20.9893 (1 samples)
	minimum = 5 (1 samples)
	maximum = 101 (1 samples)
Network latency average = 20.987 (1 samples)
	minimum = 5 (1 samples)
	maximum = 50 (1 samples)
Flit latency average = 20.9882 (1 samples)
	minimum = 5 (1 samples)
	maximum = 50 (1 samples)
Fragmentation average = 0 (1 samples)
	minimum = 0 (1 samples)
	maximum = 0 (1 samples)
Injected packet rate average = 0.0997781 (1 samples)
	minimum = 0.0955333 (1 samples)
	maximum = 0.1038 (1 samples)
Accepted packet rate average = 0.0997813 (1 samples)
	minimum = 0.0947 (1 samples)
	maximum = 0.105033 (1 samples)
Injected flit rate average = 0.0997781 (1 samples)
	minimum = 0.0955333 (1 samples)
	maximum = 0.1038 (1 samples)
Accepted flit rate average = 0.0997813 (1 samples)
	minimum = 0.0947 (1 samples)
	maximum = 0.105033 (1 samples)
Injected packet size average = 1 (1 samples)
Accepted packet size average = 1 (1 samples)
Hops average = 6.25086 (1 samples)
Total run time 59.7838
