BEGIN Configuration File: examples/ecc_mesh88_config_1_0.250_packet_4
// $Id$

// Copyright (c) 2007-2015, Trustees of The Leland Stanford Junior University
// All rights reserved.
//
// Redistribution and use in source and binary forms, with or without
// modification, are permitted provided that the following conditions are met:
//
// Redistributions of source code must retain the above copyright notice, this
// list of conditions and the following disclaimer.
// Redistributions in binary form must reproduce the above copyright notice,
// this list of conditions and the following disclaimer in the documentation
// and/or other materials provided with the distribution.
//
// THIS SOFTWARE IS PROVIDED BY THE COPYRIGHT HOLDERS AND CONTRIBUTORS "AS IS"
// AND ANY EXPRESS OR IMPLIED WARRANTIES, INCLUDING, BUT NOT LIMITED TO, THE
// IMPLIED WARRANTIES OF MERCHANTABILITY AND FITNESS FOR A PARTICULAR PURPOSE
// ARE DISCLAIMED. IN NO EVENT SHALL THE COPYRIGHT OWNER OR CONTRIBUTORS BE
// LIABLE FOR ANY DIRECT, INDIRECT, INCIDENTAL, SPECIAL, EXEMPLARY, OR
// CONSEQUENTIAL DAMAGES (INCLUDING, BUT NOT LIMITED TO, PROCUREMENT OF
// SUBSTITUTE GOODS OR SERVICES; LOSS OF USE, DATA, OR PROFITS; OR BUSINESS
// INTERRUPTION) HOWEVER CAUSED AND ON ANY THEORY OF LIABILITY, WHETHER IN
// CONTRACT, STRICT LIABILITY, OR TORT (INCLUDING NEGLIGENCE OR OTHERWISE)
// ARISING IN ANY WAY OUT OF THE USE OF THIS SOFTWARE, EVEN IF ADVISED OF THE
// POSSIBILITY OF SUCH DAMAGE.

// Dragonfly
//




vc_buf_size = 256;


wait_for_tail_credit = 0;

//
// Router architecture
//
vc_allocator = separable_input_first; 
sw_allocator = separable_input_first;
alloc_iters  = 1;

credit_delay   = 2;
routing_delay  = 0;
vc_alloc_delay = 1;
sw_alloc_delay = 1;
st_final_delay = 1;

input_speedup     = 1;
output_speedup    = 1;
internal_speedup  = 2.0;


warmup_periods = 3;
sim_count          = 1;

sample_period  = 10000;  


routing_function = dor;
num_vcs     = 2;

priority = none;
traffic       = uniform; 

injection_rate = 0.25;
packet_size = 1;
injection_rate_uses_flits = 1;

topology = mesh;

k  = 8;
n  = 2;

fer = 4;
ecc = link;

watch_out=-;
//watch_file = watch.txt;

ecc = packet;

stats_out = examples/ecc_mesh88_config_1_0.250_packet_4.m;

END Configuration File: examples/ecc_mesh88_config_1_0.250_packet_4
Additional hops: 7
Set signal latency stall time: 14
Additional hops: 14
Set signal latency stall time: 14
Reenqueueing errored packet 430 at time 66
Reenqueueing errored packet 458 at time 69
Additional hops: 20
Set signal latency stall time: 12
Reenqueueing errored packet 3632 at time 266
Additional hops: 23
Set signal latency stall time: 6
Reenqueueing errored packet 4337 at time 292
Additional hops: 29
Set signal latency stall time: 12
Reenqueueing errored packet 5049 at time 353
Additional hops: 38
Set signal latency stall time: 18
Reenqueueing errored packet 6481 at time 457
Additional hops: 41
Set signal latency stall time: 6
Reenqueueing errored packet 9053 at time 586
Additional hops: 43
Set signal latency stall time: 4
Reenqueueing errored packet 9248 at time 594
Additional hops: 49
Set signal latency stall time: 12
Reenqueueing errored packet 10285 at time 681
Additional hops: 59
Set signal latency stall time: 20
Reenqueueing errored packet 10313 at time 703
Additional hops: 67
Set signal latency stall time: 16
Reenqueueing errored packet 12992 at time 856
Additional hops: 78
Set signal latency stall time: 22
Additional hops: 86
Set signal latency stall time: 16
Reenqueueing errored packet 14682 at time 980
Reenqueueing errored packet 15094 at time 988
Additional hops: 91
Set signal latency stall time: 10
Reenqueueing errored packet 19332 at time 1240
Additional hops: 96
Set signal latency stall time: 10
Reenqueueing errored packet 21049 at time 1345
Additional hops: 100
Set signal latency stall time: 8
Reenqueueing errored packet 30335 at time 1928
Additional hops: 108
Set signal latency stall time: 16
Reenqueueing errored packet 30353 at time 1949
Additional hops: 112
Set signal latency stall time: 8
Additional hops: 120
Set signal latency stall time: 16
Reenqueueing errored packet 31873 at time 2024
Reenqueueing errored packet 31774 at time 2037
Additional hops: 127
Set signal latency stall time: 14
Reenqueueing errored packet 33576 at time 2149
Additional hops: 139
Set signal latency stall time: 24
Reenqueueing errored packet 33913 at time 2196
Additional hops: 150
Set signal latency stall time: 22
Additional hops: 155
Set signal latency stall time: 10
Reenqueueing errored packet 34511 at time 2228
Reenqueueing errored packet 35115 at time 2235
Additional hops: 160
Set signal latency stall time: 10
Reenqueueing errored packet 37769 at time 2398
Additional hops: 162
Set signal latency stall time: 4
Reenqueueing errored packet 38689 at time 2441
Additional hops: 170
Set signal latency stall time: 16
Reenqueueing errored packet 39991 at time 2548
Additional hops: 180
Set signal latency stall time: 20
Reenqueueing errored packet 43675 at time 2788
Additional hops: 188
Set signal latency stall time: 16
Reenqueueing errored packet 46547 at time 2957
Additional hops: 197
Set signal latency stall time: 18
Reenqueueing errored packet 47434 at time 3019
Additional hops: 201
Set signal latency stall time: 8
Reenqueueing errored packet 48207 at time 3042
Additional hops: 211
Set signal latency stall time: 20
Reenqueueing errored packet 49381 at time 3146
Additional hops: 218
Set signal latency stall time: 14
Reenqueueing errored packet 51463 at time 3261
Additional hops: 223
Set signal latency stall time: 10
Reenqueueing errored packet 52766 at time 3331
Additional hops: 224
Set signal latency stall time: 2
Reenqueueing errored packet 55485 at time 3488
Additional hops: 234
Set signal latency stall time: 20
Reenqueueing errored packet 58148 at time 3701
Additional hops: 244
Set signal latency stall time: 20
Reenqueueing errored packet 60003 at time 3816
Additional hops: 253
Set signal latency stall time: 18
Additional hops: 260
Set signal latency stall time: 14
Reenqueueing errored packet 61248 at time 3887
Reenqueueing errored packet 61665 at time 3901
Additional hops: 265
Set signal latency stall time: 10
Reenqueueing errored packet 62744 at time 3962
Additional hops: 270
Set signal latency stall time: 10
Reenqueueing errored packet 64115 at time 4049
Additional hops: 274
Set signal latency stall time: 8
Reenqueueing errored packet 64707 at time 4081
Additional hops: 287
Set signal latency stall time: 26
Reenqueueing errored packet 66218 at time 4225
Additional hops: 296
Set signal latency stall time: 18
Additional hops: 300
Set signal latency stall time: 8
Reenqueueing errored packet 67427 at time 4254
Reenqueueing errored packet 67142 at time 4261
Additional hops: 307
Set signal latency stall time: 14
Additional hops: 312
Set signal latency stall time: 10
Reenqueueing errored packet 69723 at time 4409
Reenqueueing errored packet 70023 at time 4418
Additional hops: 319
Set signal latency stall time: 14
Additional hops: 328
Set signal latency stall time: 18
Reenqueueing errored packet 70086 at time 4434
Reenqueueing errored packet 70110 at time 4444
Additional hops: 333
Set signal latency stall time: 10
Reenqueueing errored packet 70867 at time 4469
Additional hops: 337
Set signal latency stall time: 8
Reenqueueing errored packet 74549 at time 4697
Additional hops: 344
Set signal latency stall time: 14
Additional hops: 349
Set signal latency stall time: 10
Reenqueueing errored packet 74928 at time 4724
Reenqueueing errored packet 74820 at time 4727
Additional hops: 356
Set signal latency stall time: 14
Reenqueueing errored packet 75266 at time 4757
Additional hops: 362
Set signal latency stall time: 12
Reenqueueing errored packet 80751 at time 5090
Additional hops: 364
Set signal latency stall time: 4
Reenqueueing errored packet 86590 at time 5444
Additional hops: 375
Set signal latency stall time: 22
Additional hops: 379
Set signal latency stall time: 8
Reenqueueing errored packet 89309 at time 5658
Reenqueueing errored packet 89992 at time 5664
Additional hops: 384
Set signal latency stall time: 10
Reenqueueing errored packet 91657 at time 5777
Additional hops: 394
Set signal latency stall time: 20
Reenqueueing errored packet 92232 at time 5839
Additional hops: 401
Set signal latency stall time: 14
Reenqueueing errored packet 92894 at time 5863
Additional hops: 407
Set signal latency stall time: 12
Reenqueueing errored packet 94360 at time 5953
Additional hops: 413
Set signal latency stall time: 12
Reenqueueing errored packet 95752 at time 6038
Additional hops: 417
Set signal latency stall time: 8
Reenqueueing errored packet 97123 at time 6114
Additional hops: 420
Set signal latency stall time: 6
Reenqueueing errored packet 98730 at time 6209
Additional hops: 426
Set signal latency stall time: 12
Additional hops: 433
Set signal latency stall time: 14
Reenqueueing errored packet 98864 at time 6235
Reenqueueing errored packet 98914 at time 6242
Additional hops: 438
Set signal latency stall time: 10
Reenqueueing errored packet 99735 at time 6282
Additional hops: 440
Set signal latency stall time: 4
Reenqueueing errored packet 101171 at time 6360
Additional hops: 448
Set signal latency stall time: 16
Reenqueueing errored packet 102047 at time 6449
Additional hops: 459
Set signal latency stall time: 22
Reenqueueing errored packet 102647 at time 6501
Additional hops: 462
Set signal latency stall time: 6
Reenqueueing errored packet 105948 at time 6665
Additional hops: 466
Set signal latency stall time: 8
Reenqueueing errored packet 107140 at time 6747
Additional hops: 472
Set signal latency stall time: 12
Additional hops: 477
Set signal latency stall time: 10
Reenqueueing errored packet 107282 at time 6760
Reenqueueing errored packet 107195 at time 6760
Additional hops: 485
Set signal latency stall time: 16
Reenqueueing errored packet 107351 at time 6782
Additional hops: 493
Set signal latency stall time: 16
Reenqueueing errored packet 111176 at time 7026
Additional hops: 500
Set signal latency stall time: 14
Reenqueueing errored packet 112222 at time 7084
Additional hops: 506
Set signal latency stall time: 12
Reenqueueing errored packet 115753 at time 7307
Additional hops: 508
Set signal latency stall time: 4
Reenqueueing errored packet 117002 at time 7362
Additional hops: 513
Set signal latency stall time: 10
Reenqueueing errored packet 118471 at time 7467
Additional hops: 519
Set signal latency stall time: 12
Reenqueueing errored packet 119383 at time 7533
Additional hops: 528
Set signal latency stall time: 18
Reenqueueing errored packet 121801 at time 7697
Additional hops: 532
Set signal latency stall time: 8
Reenqueueing errored packet 122775 at time 7730
Additional hops: 537
Set signal latency stall time: 10
Reenqueueing errored packet 125275 at time 7890
Additional hops: 546
Set signal latency stall time: 18
Reenqueueing errored packet 125478 at time 7922
Additional hops: 550
Set signal latency stall time: 8
Reenqueueing errored packet 126387 at time 7956
Additional hops: 555
Set signal latency stall time: 10
Reenqueueing errored packet 126822 at time 7989
Additional hops: 564
Set signal latency stall time: 18
Reenqueueing errored packet 127305 at time 8039
Additional hops: 576
Set signal latency stall time: 24
Reenqueueing errored packet 128346 at time 8125
Additional hops: 585
Set signal latency stall time: 18
Reenqueueing errored packet 132565 at time 8367
Additional hops: 586
Set signal latency stall time: 2
Reenqueueing errored packet 133559 at time 8390
Additional hops: 592
Set signal latency stall time: 12
Reenqueueing errored packet 133688 at time 8423
Additional hops: 601
Set signal latency stall time: 18
Reenqueueing errored packet 136456 at time 8614
Additional hops: 609
Set signal latency stall time: 16
Additional hops: 612
Set signal latency stall time: 6
Reenqueueing errored packet 137254 at time 8632
Reenqueueing errored packet 136848 at time 8633
Additional hops: 617
Set signal latency stall time: 10
Reenqueueing errored packet 137861 at time 8680
Additional hops: 625
Set signal latency stall time: 16
Reenqueueing errored packet 140372 at time 8854
Additional hops: 628
Set signal latency stall time: 6
Reenqueueing errored packet 141301 at time 8887
Additional hops: 635
Set signal latency stall time: 14
Reenqueueing errored packet 142983 at time 9010
Additional hops: 639
Set signal latency stall time: 8
Reenqueueing errored packet 144482 at time 9087
Additional hops: 645
Set signal latency stall time: 12
Reenqueueing errored packet 144824 at time 9122
Additional hops: 653
Set signal latency stall time: 16
Additional hops: 655
Set signal latency stall time: 4
Reenqueueing errored packet 146155 at time 9179
Additional hops: 660
Set signal latency stall time: 10
Reenqueueing errored packet 145650 at time 9182
Reenqueueing errored packet 146125 at time 9192
Additional hops: 670
Set signal latency stall time: 20
Additional hops: 675
Set signal latency stall time: 10
Reenqueueing errored packet 146499 at time 9215
Reenqueueing errored packet 146264 at time 9225
Additional hops: 688
Set signal latency stall time: 26
Reenqueueing errored packet 146701 at time 9267
Additional hops: 695
Set signal latency stall time: 14
Reenqueueing errored packet 148003 at time 9318
Additional hops: 700
Set signal latency stall time: 10
Reenqueueing errored packet 149250 at time 9387
Additional hops: 710
Set signal latency stall time: 20
Reenqueueing errored packet 150914 at time 9520
Additional hops: 715
Set signal latency stall time: 10
Reenqueueing errored packet 153172 at time 9640
Additional hops: 721
Set signal latency stall time: 12
Additional hops: 732
Set signal latency stall time: 22
Reenqueueing errored packet 153805 at time 9688
Reenqueueing errored packet 153664 at time 9701
Additional hops: 742
Set signal latency stall time: 20
Reenqueueing errored packet 156719 at time 9889
Class 0:
Packet latency average = 21.6914
	minimum = 5
	maximum = 115
Network latency average = 21.665
	minimum = 5
	maximum = 56
Slowest packet = 231
Flit latency average = 21.665
	minimum = 5
	maximum = 56
Slowest flit = 3389
Fragmentation average = 0
	minimum = 0
	maximum = 0
Injected packet rate average = 0.249325
	minimum = 0.2418 (at node 10)
	maximum = 0.2584 (at node 55)
Accepted packet rate average = 0.248745
	minimum = 0.2391 (at node 33)
	maximum = 0.2608 (at node 1)
Injected flit rate average = 0.249325
	minimum = 0.2418 (at node 10)
	maximum = 0.2584 (at node 55)
Accepted flit rate average= 0.248745
	minimum = 0.2391 (at node 33)
	maximum = 0.2608 (at node 1)
Injected packet length average = 1
Accepted packet length average = 1
Total in-flight flits = 371 (0 measured)
latency change    = 1
throughput change = 1
Additional hops: 744
Set signal latency stall time: 4
Additional hops: 755
Set signal latency stall time: 22
Reenqueueing errored packet 160051 at time 10052
Reenqueueing errored packet 159595 at time 10070
Additional hops: 764
Set signal latency stall time: 18
Reenqueueing errored packet 160644 at time 10122
Additional hops: 770
Set signal latency stall time: 12
Additional hops: 778
Set signal latency stall time: 16
Reenqueueing errored packet 163416 at time 10279
Reenqueueing errored packet 163393 at time 10286
Additional hops: 787
Set signal latency stall time: 18
Additional hops: 794
Set signal latency stall time: 14
Reenqueueing errored packet 164190 at time 10341
Reenqueueing errored packet 164547 at time 10354
Additional hops: 799
Set signal latency stall time: 10
Reenqueueing errored packet 166774 at time 10481
Additional hops: 809
Set signal latency stall time: 20
Additional hops: 813
Set signal latency stall time: 8
Reenqueueing errored packet 170317 at time 10725
Additional hops: 819
Set signal latency stall time: 12
Reenqueueing errored packet 170824 at time 10729
Additional hops: 826
Set signal latency stall time: 14
Reenqueueing errored packet 170853 at time 10740
Additional hops: 831
Set signal latency stall time: 10
Reenqueueing errored packet 170976 at time 10753
Reenqueueing errored packet 171274 at time 10763
Additional hops: 841
Set signal latency stall time: 20
Reenqueueing errored packet 172067 at time 10838
Additional hops: 848
Set signal latency stall time: 14
Reenqueueing errored packet 173067 at time 10885
Additional hops: 857
Set signal latency stall time: 18
Reenqueueing errored packet 174455 at time 10980
Additional hops: 865
Set signal latency stall time: 16
Reenqueueing errored packet 175136 at time 11022
Additional hops: 872
Set signal latency stall time: 14
Reenqueueing errored packet 180195 at time 11331
Additional hops: 877
Set signal latency stall time: 10
Additional hops: 885
Set signal latency stall time: 16
Reenqueueing errored packet 181390 at time 11396
Reenqueueing errored packet 181281 at time 11405
Additional hops: 893
Set signal latency stall time: 16
Reenqueueing errored packet 183833 at time 11566
Additional hops: 902
Set signal latency stall time: 18
Reenqueueing errored packet 184059 at time 11587
Additional hops: 909
Set signal latency stall time: 14
Reenqueueing errored packet 184848 at time 11628
Additional hops: 915
Set signal latency stall time: 12
Additional hops: 918
Set signal latency stall time: 6
Reenqueueing errored packet 185675 at time 11661
Reenqueueing errored packet 185489 at time 11664
Additional hops: 922
Set signal latency stall time: 8
Reenqueueing errored packet 190801 at time 11984
Additional hops: 934
Set signal latency stall time: 24
Reenqueueing errored packet 191034 at time 12044
Additional hops: 939
Set signal latency stall time: 10
Reenqueueing errored packet 196067 at time 12323
Additional hops: 948
Set signal latency stall time: 18
Additional hops: 957
Set signal latency stall time: 18
Reenqueueing errored packet 197182 at time 12416
Reenqueueing errored packet 197373 at time 12429
Additional hops: 965
Set signal latency stall time: 16
Reenqueueing errored packet 198991 at time 12525
Additional hops: 969
Set signal latency stall time: 8
Reenqueueing errored packet 200702 at time 12612
Additional hops: 981
Set signal latency stall time: 24
Additional hops: 990
Set signal latency stall time: 18
Reenqueueing errored packet 201010 at time 12673
Reenqueueing errored packet 201346 at time 12681
Additional hops: 994
Set signal latency stall time: 8
Reenqueueing errored packet 203169 at time 12769
Additional hops: 1002
Set signal latency stall time: 16
Reenqueueing errored packet 203208 at time 12791
Additional hops: 1010
Set signal latency stall time: 16
Reenqueueing errored packet 204468 at time 12872
Additional hops: 1016
Set signal latency stall time: 12
Reenqueueing errored packet 204988 at time 12893
Additional hops: 1019
Set signal latency stall time: 6
Reenqueueing errored packet 206239 at time 12956
Additional hops: 1030
Set signal latency stall time: 22
Additional hops: 1033
Set signal latency stall time: 6
Reenqueueing errored packet 206181 at time 12991
Reenqueueing errored packet 206913 at time 12995
Additional hops: 1041
Set signal latency stall time: 16
Reenqueueing errored packet 207720 at time 13075
Additional hops: 1051
Set signal latency stall time: 20
Reenqueueing errored packet 208447 at time 13133
Additional hops: 1060
Set signal latency stall time: 18
Reenqueueing errored packet 209577 at time 13198
Additional hops: 1071
Set signal latency stall time: 22
Reenqueueing errored packet 211129 at time 13303
Additional hops: 1079
Set signal latency stall time: 16
Reenqueueing errored packet 211873 at time 13334
Additional hops: 1082
Set signal latency stall time: 6
Reenqueueing errored packet 212763 at time 13364
Additional hops: 1093
Set signal latency stall time: 22
Reenqueueing errored packet 215404 at time 13573
Additional hops: 1101
Set signal latency stall time: 16
Reenqueueing errored packet 216139 at time 13602
Additional hops: 1108
Set signal latency stall time: 14
Additional hops: 1115
Set signal latency stall time: 14
Reenqueueing errored packet 217616 at time 13686
Reenqueueing errored packet 217669 at time 13696
Additional hops: 1122
Set signal latency stall time: 14
Reenqueueing errored packet 218985 at time 13771
Additional hops: 1130
Set signal latency stall time: 16
Reenqueueing errored packet 219309 at time 13797
Additional hops: 1134
Set signal latency stall time: 8
Reenqueueing errored packet 223108 at time 14013
Additional hops: 1139
Set signal latency stall time: 10
Reenqueueing errored packet 223237 at time 14027
Additional hops: 1144
Set signal latency stall time: 10
Reenqueueing errored packet 224855 at time 14130
Additional hops: 1153
Set signal latency stall time: 18
Reenqueueing errored packet 225312 at time 14176
Additional hops: 1158
Set signal latency stall time: 10
Additional hops: 1160
Set signal latency stall time: 4
Reenqueueing errored packet 227004 at time 14261
Reenqueueing errored packet 227266 at time 14262
Additional hops: 1166
Set signal latency stall time: 12
Reenqueueing errored packet 227674 at time 14308
Additional hops: 1171
Set signal latency stall time: 10
Reenqueueing errored packet 230683 at time 14493
Additional hops: 1176
Set signal latency stall time: 10
Reenqueueing errored packet 230934 at time 14510
Additional hops: 1189
Set signal latency stall time: 26
Additional hops: 1201
Set signal latency stall time: 24
Reenqueueing errored packet 231367 at time 14577
Reenqueueing errored packet 231583 at time 14585
Additional hops: 1206
Set signal latency stall time: 10
Reenqueueing errored packet 233916 at time 14696
Additional hops: 1214
Set signal latency stall time: 16
Reenqueueing errored packet 236949 at time 14898
Additional hops: 1215
Set signal latency stall time: 2
Reenqueueing errored packet 237925 at time 14925
Additional hops: 1220
Set signal latency stall time: 10
Reenqueueing errored packet 238042 at time 14953
Additional hops: 1227
Set signal latency stall time: 14
Reenqueueing errored packet 239942 at time 15088
Additional hops: 1235
Set signal latency stall time: 16
Reenqueueing errored packet 241167 at time 15167
Additional hops: 1244
Set signal latency stall time: 18
Reenqueueing errored packet 241467 at time 15189
Additional hops: 1251
Set signal latency stall time: 14
Reenqueueing errored packet 245057 at time 15400
Additional hops: 1260
Set signal latency stall time: 18
Reenqueueing errored packet 246382 at time 15495
Additional hops: 1266
Set signal latency stall time: 12
Reenqueueing errored packet 247014 at time 15516
Additional hops: 1279
Set signal latency stall time: 26
Additional hops: 1282
Set signal latency stall time: 6
Reenqueueing errored packet 248769 at time 15609
Reenqueueing errored packet 248279 at time 15628
Additional hops: 1291
Set signal latency stall time: 18
Reenqueueing errored packet 249438 at time 15681
Additional hops: 1301
Set signal latency stall time: 20
Reenqueueing errored packet 251721 at time 15835
Additional hops: 1308
Set signal latency stall time: 14
Reenqueueing errored packet 255430 at time 16045
Additional hops: 1316
Set signal latency stall time: 16
Reenqueueing errored packet 260387 at time 16363
Additional hops: 1321
Set signal latency stall time: 10
Reenqueueing errored packet 262554 at time 16483
Additional hops: 1330
Set signal latency stall time: 18
Reenqueueing errored packet 264127 at time 16606
Additional hops: 1338
Set signal latency stall time: 16
Reenqueueing errored packet 265499 at time 16682
Additional hops: 1342
Set signal latency stall time: 8
Reenqueueing errored packet 270009 at time 16947
Additional hops: 1352
Set signal latency stall time: 20
Reenqueueing errored packet 270557 at time 17013
Additional hops: 1362
Set signal latency stall time: 20
Reenqueueing errored packet 272480 at time 17139
Additional hops: 1376
Set signal latency stall time: 28
Reenqueueing errored packet 274675 at time 17299
Additional hops: 1379
Set signal latency stall time: 6
Reenqueueing errored packet 277018 at time 17391
Additional hops: 1384
Set signal latency stall time: 10
Reenqueueing errored packet 277853 at time 17452
Additional hops: 1389
Set signal latency stall time: 10
Reenqueueing errored packet 278285 at time 17478
Additional hops: 1398
Set signal latency stall time: 18
Reenqueueing errored packet 281099 at time 17680
Additional hops: 1405
Set signal latency stall time: 14
Reenqueueing errored packet 281965 at time 17722
Additional hops: 1412
Set signal latency stall time: 14
Reenqueueing errored packet 284110 at time 17859
Additional hops: 1421
Set signal latency stall time: 18
Reenqueueing errored packet 286214 at time 18004
Additional hops: 1426
Set signal latency stall time: 10
Reenqueueing errored packet 289297 at time 18172
Additional hops: 1434
Set signal latency stall time: 16
Additional hops: 1442
Set signal latency stall time: 16
Reenqueueing errored packet 292634 at time 18397
Reenqueueing errored packet 292752 at time 18403
Additional hops: 1447
Set signal latency stall time: 10
Reenqueueing errored packet 293714 at time 18449
Additional hops: 1456
Set signal latency stall time: 18
Reenqueueing errored packet 294368 at time 18506
Additional hops: 1462
Set signal latency stall time: 12
Reenqueueing errored packet 294909 at time 18526
Additional hops: 1468
Set signal latency stall time: 12
Reenqueueing errored packet 295439 at time 18560
Additional hops: 1476
Set signal latency stall time: 16
Reenqueueing errored packet 296025 at time 18606
Additional hops: 1483
Set signal latency stall time: 14
Reenqueueing errored packet 299511 at time 18822
Additional hops: 1491
Set signal latency stall time: 16
Reenqueueing errored packet 302231 at time 18994
Additional hops: 1495
Set signal latency stall time: 8
Reenqueueing errored packet 303661 at time 19063
Additional hops: 1500
Set signal latency stall time: 10
Reenqueueing errored packet 306521 at time 19249
Additional hops: 1509
Set signal latency stall time: 18
Reenqueueing errored packet 308711 at time 19408
Additional hops: 1519
Set signal latency stall time: 20
Reenqueueing errored packet 309847 at time 19487
Additional hops: 1524
Set signal latency stall time: 10
Reenqueueing errored packet 310565 at time 19503
Additional hops: 1530
Set signal latency stall time: 12
Reenqueueing errored packet 310751 at time 19519
Additional hops: 1544
Set signal latency stall time: 28
Reenqueueing errored packet 314072 at time 19768
Additional hops: 1550
Set signal latency stall time: 12
Additional hops: 1551
Set signal latency stall time: 2
Reenqueueing errored packet 316501 at time 19879
Reenqueueing errored packet 316969 at time 19881
Additional hops: 1554
Set signal latency stall time: 6
Reenqueueing errored packet 316920 at time 19888
Class 0:
Packet latency average = 21.6935
	minimum = 5
	maximum = 124
Network latency average = 21.666
	minimum = 5
	maximum = 57
Slowest packet = 231
Flit latency average = 21.666
	minimum = 5
	maximum = 57
Slowest flit = 201990
Fragmentation average = 0
	minimum = 0
	maximum = 0
Injected packet rate average = 0.249382
	minimum = 0.24245 (at node 34)
	maximum = 0.2569 (at node 6)
Accepted packet rate average = 0.249107
	minimum = 0.24085 (at node 21)
	maximum = 0.2577 (at node 28)
Injected flit rate average = 0.249382
	minimum = 0.24245 (at node 34)
	maximum = 0.2569 (at node 6)
Accepted flit rate average= 0.249107
	minimum = 0.24085 (at node 21)
	maximum = 0.2577 (at node 28)
Injected packet length average = 1
Accepted packet length average = 1
Total in-flight flits = 352 (0 measured)
latency change    = 9.79272e-05
throughput change = 0.00145206
Additional hops: 1560
Set signal latency stall time: 12
Reenqueueing errored packet 322373 at time 20248
Additional hops: 1569
Set signal latency stall time: 18
Additional hops: 1576
Set signal latency stall time: 14
Reenqueueing errored packet 322976 at time 20302
Reenqueueing errored packet 323140 at time 20303
Additional hops: 1586
Set signal latency stall time: 20
Reenqueueing errored packet 323494 at time 20337
Additional hops: 1592
Set signal latency stall time: 12
Reenqueueing errored packet 324064 at time 20354
Additional hops: 1603
Set signal latency stall time: 22
Reenqueueing errored packet 324117 at time 20383
Additional hops: 1608
Set signal latency stall time: 10
Reenqueueing errored packet 325425 at time 20436
Additional hops: 1613
Set signal latency stall time: 10
Reenqueueing errored packet 329398 at time 20679
Additional hops: 1618
Set signal latency stall time: 10
Reenqueueing errored packet 331301 at time 20801
Additional hops: 1624
Set signal latency stall time: 12
Reenqueueing errored packet 331931 at time 20846
Additional hops: 1626
Set signal latency stall time: 4
Reenqueueing errored packet 333121 at time 20897
Additional hops: 1631
Set signal latency stall time: 10
Reenqueueing errored packet 334791 at time 21014
Additional hops: 1644
Set signal latency stall time: 26
Reenqueueing errored packet 335147 at time 21075
Additional hops: 1650
Set signal latency stall time: 12
Additional hops: 1657
Set signal latency stall time: 14
Reenqueueing errored packet 336305 at time 21112
Reenqueueing errored packet 336412 at time 21124
Additional hops: 1662
Set signal latency stall time: 10
Reenqueueing errored packet 338387 at time 21238
Additional hops: 1663
Set signal latency stall time: 2
Additional hops: 1665
Set signal latency stall time: 4
Reenqueueing errored packet 338831 at time 21243
Reenqueueing errored packet 338789 at time 21247
Additional hops: 1669
Set signal latency stall time: 8
Reenqueueing errored packet 338962 at time 21266
Additional hops: 1676
Set signal latency stall time: 14
Reenqueueing errored packet 347401 at time 21808
Additional hops: 1689
Set signal latency stall time: 26
Reenqueueing errored packet 348130 at time 21882
Additional hops: 1699
Set signal latency stall time: 20
Reenqueueing errored packet 349784 at time 21970
Additional hops: 1707
Set signal latency stall time: 16
Reenqueueing errored packet 350568 at time 22010
Additional hops: 1710
Set signal latency stall time: 6
Reenqueueing errored packet 353038 at time 22140
Additional hops: 1719
Set signal latency stall time: 18
Additional hops: 1727
Set signal latency stall time: 16
Reenqueueing errored packet 356199 at time 22370
Reenqueueing errored packet 356523 at time 22386
Additional hops: 1735
Set signal latency stall time: 16
Additional hops: 1739
Set signal latency stall time: 8
Reenqueueing errored packet 361149 at time 22678
Additional hops: 1749
Set signal latency stall time: 20
Additional hops: 1758
Set signal latency stall time: 18
Reenqueueing errored packet 361637 at time 22686
Reenqueueing errored packet 361375 at time 22699
Reenqueueing errored packet 361470 at time 22704
Additional hops: 1761
Set signal latency stall time: 6
Reenqueueing errored packet 362707 at time 22748
Additional hops: 1770
Set signal latency stall time: 18
Reenqueueing errored packet 363076 at time 22804
Additional hops: 1777
Set signal latency stall time: 14
Reenqueueing errored packet 364329 at time 22868
Additional hops: 1782
Set signal latency stall time: 10
Reenqueueing errored packet 365774 at time 22947
Additional hops: 1788
Set signal latency stall time: 12
Reenqueueing errored packet 367105 at time 23038
Additional hops: 1797
Set signal latency stall time: 18
Reenqueueing errored packet 367436 at time 23075
Additional hops: 1801
Set signal latency stall time: 8
Reenqueueing errored packet 368654 at time 23123
Additional hops: 1810
Set signal latency stall time: 18
Reenqueueing errored packet 370078 at time 23240
Additional hops: 1818
Set signal latency stall time: 16
Additional hops: 1824
Set signal latency stall time: 12
Reenqueueing errored packet 372183 at time 23363
Reenqueueing errored packet 372412 at time 23370
Additional hops: 1831
Set signal latency stall time: 14
Reenqueueing errored packet 375802 at time 23583
Additional hops: 1836
Set signal latency stall time: 10
Reenqueueing errored packet 376363 at time 23608
Additional hops: 1842
Set signal latency stall time: 12
Reenqueueing errored packet 378114 at time 23725
Additional hops: 1852
Set signal latency stall time: 20
Reenqueueing errored packet 379251 at time 23818
Additional hops: 1863
Set signal latency stall time: 22
Reenqueueing errored packet 380484 at time 23901
Additional hops: 1870
Set signal latency stall time: 14
Reenqueueing errored packet 381584 at time 23948
Additional hops: 1873
Set signal latency stall time: 6
Additional hops: 1882
Set signal latency stall time: 18
Reenqueueing errored packet 382142 at time 23960
Additional hops: 1888
Set signal latency stall time: 12
Reenqueueing errored packet 381885 at time 23978
Reenqueueing errored packet 382261 at time 23986
Additional hops: 1891
Set signal latency stall time: 6
Reenqueueing errored packet 383528 at time 24047
Additional hops: 1897
Set signal latency stall time: 12
Reenqueueing errored packet 386274 at time 24238
Additional hops: 1908
Set signal latency stall time: 22
Reenqueueing errored packet 387881 at time 24370
Additional hops: 1916
Set signal latency stall time: 16
Additional hops: 1927
Set signal latency stall time: 22
Reenqueueing errored packet 388622 at time 24401
Reenqueueing errored packet 388544 at time 24411
Additional hops: 1936
Set signal latency stall time: 18
Additional hops: 1943
Set signal latency stall time: 14
Reenqueueing errored packet 392387 at time 24638
Reenqueueing errored packet 392330 at time 24640
Additional hops: 1953
Set signal latency stall time: 20
Reenqueueing errored packet 395445 at time 24843
Additional hops: 1957
Set signal latency stall time: 8
Reenqueueing errored packet 400597 at time 25131
Additional hops: 1964
Set signal latency stall time: 14
Reenqueueing errored packet 401294 at time 25190
Additional hops: 1972
Set signal latency stall time: 16
Reenqueueing errored packet 403084 at time 25310
Additional hops: 1978
Set signal latency stall time: 12
Reenqueueing errored packet 403452 at time 25323
Additional hops: 1988
Set signal latency stall time: 20
Additional hops: 1997
Set signal latency stall time: 18
Reenqueueing errored packet 403758 at time 25366
Reenqueueing errored packet 403965 at time 25371
Additional hops: 2006
Set signal latency stall time: 18
Reenqueueing errored packet 407864 at time 25615
Additional hops: 2013
Set signal latency stall time: 14
Reenqueueing errored packet 408407 at time 25638
Additional hops: 2018
Set signal latency stall time: 10
Reenqueueing errored packet 409809 at time 25721
Additional hops: 2028
Set signal latency stall time: 20
Reenqueueing errored packet 413493 at time 25977
Additional hops: 2035
Set signal latency stall time: 14
Reenqueueing errored packet 414167 at time 26005
Additional hops: 2044
Set signal latency stall time: 18
Reenqueueing errored packet 414560 at time 26038
Additional hops: 2055
Set signal latency stall time: 22
Reenqueueing errored packet 418660 at time 26306
Additional hops: 2069
Set signal latency stall time: 28
Reenqueueing errored packet 419638 at time 26381
Additional hops: 2071
Set signal latency stall time: 4
Reenqueueing errored packet 420914 at time 26397
Additional hops: 2074
Set signal latency stall time: 6
Reenqueueing errored packet 421010 at time 26408
Additional hops: 2083
Set signal latency stall time: 18
Additional hops: 2098
Set signal latency stall time: 30
Reenqueueing errored packet 421759 at time 26488
Reenqueueing errored packet 421647 at time 26510
Additional hops: 2107
Set signal latency stall time: 18
Reenqueueing errored packet 423492 at time 26594
Additional hops: 2113
Set signal latency stall time: 12
Reenqueueing errored packet 423983 at time 26613
Additional hops: 2120
Set signal latency stall time: 14
Reenqueueing errored packet 424988 at time 26685
Additional hops: 2126
Set signal latency stall time: 12
Reenqueueing errored packet 426049 at time 26743
Additional hops: 2130
Set signal latency stall time: 8
Reenqueueing errored packet 426946 at time 26787
Additional hops: 2138
Set signal latency stall time: 16
Reenqueueing errored packet 428391 at time 26896
Additional hops: 2144
Set signal latency stall time: 12
Reenqueueing errored packet 431011 at time 27051
Additional hops: 2153
Set signal latency stall time: 18
Additional hops: 2158
Set signal latency stall time: 10
Reenqueueing errored packet 431861 at time 27122
Reenqueueing errored packet 432355 at time 27132
Additional hops: 2165
Set signal latency stall time: 14
Additional hops: 2168
Set signal latency stall time: 6
Reenqueueing errored packet 432993 at time 27183
Reenqueueing errored packet 433362 at time 27185
Additional hops: 2174
Set signal latency stall time: 12
Additional hops: 2179
Set signal latency stall time: 10
Reenqueueing errored packet 434679 at time 27287
Reenqueueing errored packet 434858 at time 27293
Additional hops: 2185
Set signal latency stall time: 12
Reenqueueing errored packet 436646 at time 27409
Additional hops: 2189
Set signal latency stall time: 8
Reenqueueing errored packet 437030 at time 27423
Additional hops: 2203
Set signal latency stall time: 28
Reenqueueing errored packet 438164 at time 27545
Additional hops: 2212
Set signal latency stall time: 18
Reenqueueing errored packet 439531 at time 27605
Additional hops: 2219
Set signal latency stall time: 14
Reenqueueing errored packet 442794 at time 27793
Additional hops: 2222
Set signal latency stall time: 6
Reenqueueing errored packet 443703 at time 27829
Additional hops: 2232
Set signal latency stall time: 20
Reenqueueing errored packet 444337 at time 27905
Additional hops: 2242
Set signal latency stall time: 20
Reenqueueing errored packet 446058 at time 28016
Additional hops: 2251
Set signal latency stall time: 18
Reenqueueing errored packet 448425 at time 28161
Additional hops: 2261
Set signal latency stall time: 20
Reenqueueing errored packet 455456 at time 28601
Additional hops: 2265
Set signal latency stall time: 8
Additional hops: 2267
Set signal latency stall time: 4
Reenqueueing errored packet 456515 at time 28626
Reenqueueing errored packet 456411 at time 28629
Additional hops: 2272
Set signal latency stall time: 10
Reenqueueing errored packet 458092 at time 28738
Additional hops: 2281
Set signal latency stall time: 18
Reenqueueing errored packet 459867 at time 28868
Additional hops: 2291
Set signal latency stall time: 20
Reenqueueing errored packet 460157 at time 28891
Additional hops: 2296
Set signal latency stall time: 10
Reenqueueing errored packet 461277 at time 28937
Additional hops: 2303
Set signal latency stall time: 14
Reenqueueing errored packet 462682 at time 29034
Additional hops: 2313
Set signal latency stall time: 20
Reenqueueing errored packet 464624 at time 29180
Additional hops: 2322
Set signal latency stall time: 18
Reenqueueing errored packet 466602 at time 29297
Additional hops: 2330
Set signal latency stall time: 16
Reenqueueing errored packet 468869 at time 29432
Additional hops: 2334
Set signal latency stall time: 8
Reenqueueing errored packet 470802 at time 29533
Additional hops: 2341
Set signal latency stall time: 14
Reenqueueing errored packet 472862 at time 29680
Additional hops: 2344
Set signal latency stall time: 6
Reenqueueing errored packet 473318 at time 29690
Additional hops: 2349
Set signal latency stall time: 10
Reenqueueing errored packet 474367 at time 29764
Additional hops: 2360
Set signal latency stall time: 22
Additional hops: 2369
Set signal latency stall time: 18
Reenqueueing errored packet 475656 at time 29873
Reenqueueing errored packet 475870 at time 29875
Additional hops: 2377
Set signal latency stall time: 16
Reenqueueing errored packet 477269 at time 29960
Additional hops: 2382
Set signal latency stall time: 10
Reenqueueing errored packet 478010 at time 29989
Class 0:
Packet latency average = 21.7005
	minimum = 5
	maximum = 129
Network latency average = 21.6716
	minimum = 5
	maximum = 56
Slowest packet = 318722
Flit latency average = 21.6716
	minimum = 5
	maximum = 56
Slowest flit = 337438
Fragmentation average = 0
	minimum = 0
	maximum = 0
Injected packet rate average = 0.249592
	minimum = 0.2379 (at node 42)
	maximum = 0.2619 (at node 23)
Accepted packet rate average = 0.249628
	minimum = 0.238 (at node 1)
	maximum = 0.2643 (at node 57)
Injected flit rate average = 0.249592
	minimum = 0.2379 (at node 42)
	maximum = 0.2619 (at node 23)
Accepted flit rate average= 0.249628
	minimum = 0.238 (at node 1)
	maximum = 0.2643 (at node 57)
Injected packet length average = 1
Accepted packet length average = 1
Total in-flight flits = 329 (0 measured)
latency change    = 0.000322596
throughput change = 0.00208748
Warmed up ...Time used is 30000 cycles
Additional hops: 2390
Set signal latency stall time: 16
Reenqueueing errored packet 482804 at time 30311
Additional hops: 2395
Set signal latency stall time: 10
Reenqueueing errored packet 484131 at time 30381
Additional hops: 2402
Set signal latency stall time: 14
Reenqueueing errored packet 485143 at time 30453
Additional hops: 2410
Set signal latency stall time: 16
Additional hops: 2416
Set signal latency stall time: 12
Reenqueueing errored packet 486479 at time 30543
Reenqueueing errored packet 486830 at time 30554
Additional hops: 2424
Set signal latency stall time: 16
Reenqueueing errored packet 490934 at time 30823
Additional hops: 2434
Set signal latency stall time: 20
Reenqueueing errored packet 491922 at time 30897
Additional hops: 2440
Set signal latency stall time: 12
Reenqueueing errored packet 494349 at time 31030
Additional hops: 2446
Set signal latency stall time: 12
Reenqueueing errored packet 494749 at time 31055
Additional hops: 2453
Set signal latency stall time: 14
Reenqueueing errored packet 499724 at time 31366
Additional hops: 2458
Set signal latency stall time: 10
Reenqueueing errored packet 500441 at time 31400
Additional hops: 2462
Set signal latency stall time: 8
Reenqueueing errored packet 502969 at time 31553
Additional hops: 2469
Set signal latency stall time: 14
Additional hops: 2478
Set signal latency stall time: 18
Reenqueueing errored packet 503018 at time 31571
Reenqueueing errored packet 502975 at time 31579
Additional hops: 2485
Set signal latency stall time: 14
Reenqueueing errored packet 503703 at time 31616
Additional hops: 2491
Set signal latency stall time: 12
Reenqueueing errored packet 504079 at time 31634
Additional hops: 2497
Set signal latency stall time: 12
Reenqueueing errored packet 504290 at time 31648
Additional hops: 2510
Set signal latency stall time: 26
Additional hops: 2520
Set signal latency stall time: 20
Reenqueueing errored packet 505095 at time 31734
Reenqueueing errored packet 505385 at time 31738
Additional hops: 2527
Set signal latency stall time: 14
Reenqueueing errored packet 509856 at time 32007
Additional hops: 2538
Set signal latency stall time: 22
Additional hops: 2550
Set signal latency stall time: 24
Reenqueueing errored packet 512214 at time 32176
Reenqueueing errored packet 512336 at time 32187
Additional hops: 2560
Set signal latency stall time: 20
Reenqueueing errored packet 513384 at time 32249
Additional hops: 2569
Set signal latency stall time: 18
Reenqueueing errored packet 515587 at time 32385
Additional hops: 2573
Set signal latency stall time: 8
Reenqueueing errored packet 516254 at time 32397
Additional hops: 2578
Set signal latency stall time: 10
Reenqueueing errored packet 517855 at time 32502
Additional hops: 2583
Set signal latency stall time: 10
Reenqueueing errored packet 519010 at time 32575
Additional hops: 2590
Set signal latency stall time: 14
Reenqueueing errored packet 521784 at time 32764
Additional hops: 2599
Set signal latency stall time: 18
Reenqueueing errored packet 524432 at time 32946
Additional hops: 2605
Set signal latency stall time: 12
Reenqueueing errored packet 527648 at time 33132
Additional hops: 2613
Set signal latency stall time: 16
Reenqueueing errored packet 527919 at time 33159
Additional hops: 2622
Set signal latency stall time: 18
Additional hops: 2632
Set signal latency stall time: 20
Reenqueueing errored packet 528357 at time 33189
Reenqueueing errored packet 528403 at time 33198
Additional hops: 2640
Set signal latency stall time: 16
Reenqueueing errored packet 530133 at time 33296
Additional hops: 2645
Set signal latency stall time: 10
Reenqueueing errored packet 530661 at time 33315
Additional hops: 2653
Set signal latency stall time: 16
Additional hops: 2665
Set signal latency stall time: 24
Reenqueueing errored packet 531763 at time 33398
Additional hops: 2671
Set signal latency stall time: 12
Reenqueueing errored packet 531632 at time 33409
Reenqueueing errored packet 532273 at time 33421
Additional hops: 2680
Set signal latency stall time: 18
Reenqueueing errored packet 533307 at time 33501
Additional hops: 2686
Set signal latency stall time: 12
Reenqueueing errored packet 534910 at time 33588
Additional hops: 2693
Set signal latency stall time: 14
Reenqueueing errored packet 536443 at time 33690
Additional hops: 2701
Set signal latency stall time: 16
Reenqueueing errored packet 537428 at time 33758
Additional hops: 2706
Set signal latency stall time: 10
Reenqueueing errored packet 539819 at time 33891
Additional hops: 2715
Set signal latency stall time: 18
Reenqueueing errored packet 540128 at time 33932
Additional hops: 2726
Set signal latency stall time: 22
Additional hops: 2735
Set signal latency stall time: 18
Reenqueueing errored packet 540769 at time 33972
Reenqueueing errored packet 540578 at time 33972
Additional hops: 2739
Set signal latency stall time: 8
Reenqueueing errored packet 543882 at time 34138
Additional hops: 2745
Set signal latency stall time: 12
Reenqueueing errored packet 546054 at time 34283
Additional hops: 2751
Set signal latency stall time: 12
Reenqueueing errored packet 546551 at time 34314
Additional hops: 2756
Set signal latency stall time: 10
Reenqueueing errored packet 550976 at time 34583
Additional hops: 2761
Set signal latency stall time: 10
Reenqueueing errored packet 551284 at time 34605
Additional hops: 2766
Set signal latency stall time: 10
Reenqueueing errored packet 551484 at time 34619
Additional hops: 2773
Set signal latency stall time: 14
Reenqueueing errored packet 551687 at time 34643
Additional hops: 2781
Set signal latency stall time: 16
Additional hops: 2788
Set signal latency stall time: 14
Reenqueueing errored packet 554448 at time 34818
Reenqueueing errored packet 554644 at time 34825
Additional hops: 2801
Set signal latency stall time: 26
Reenqueueing errored packet 555478 at time 34906
Additional hops: 2811
Set signal latency stall time: 20
Reenqueueing errored packet 557817 at time 35041
Additional hops: 2820
Set signal latency stall time: 18
Reenqueueing errored packet 558824 at time 35097
Additional hops: 2828
Set signal latency stall time: 16
Reenqueueing errored packet 560269 at time 35177
Additional hops: 2833
Set signal latency stall time: 10
Reenqueueing errored packet 561953 at time 35268
Additional hops: 2841
Set signal latency stall time: 16
Additional hops: 2849
Set signal latency stall time: 16
Reenqueueing errored packet 562263 at time 35303
Additional hops: 2860
Set signal latency stall time: 22
Reenqueueing errored packet 562530 at time 35319
Additional hops: 2867
Set signal latency stall time: 14
Reenqueueing errored packet 562630 at time 35339
Reenqueueing errored packet 563031 at time 35345
Additional hops: 2877
Set signal latency stall time: 20
Reenqueueing errored packet 565049 at time 35495
Additional hops: 2886
Set signal latency stall time: 18
Reenqueueing errored packet 566540 at time 35579
Additional hops: 2896
Set signal latency stall time: 20
Additional hops: 2903
Set signal latency stall time: 14
Additional hops: 2908
Set signal latency stall time: 10
Reenqueueing errored packet 569823 at time 35773
Reenqueueing errored packet 569625 at time 35777
Reenqueueing errored packet 570034 at time 35779
Additional hops: 2911
Set signal latency stall time: 6
Reenqueueing errored packet 570754 at time 35815
Additional hops: 2922
Set signal latency stall time: 22
Additional hops: 2928
Set signal latency stall time: 12
Reenqueueing errored packet 571543 at time 35880
Reenqueueing errored packet 571209 at time 35884
Additional hops: 2938
Set signal latency stall time: 20
Additional hops: 2948
Set signal latency stall time: 20
Reenqueueing errored packet 571815 at time 35918
Reenqueueing errored packet 571947 at time 35925
Additional hops: 2951
Set signal latency stall time: 6
Reenqueueing errored packet 573178 at time 35966
Additional hops: 2954
Set signal latency stall time: 6
Reenqueueing errored packet 573741 at time 36002
Additional hops: 2961
Set signal latency stall time: 14
Additional hops: 2965
Set signal latency stall time: 8
Reenqueueing errored packet 575330 at time 36107
Reenqueueing errored packet 575009 at time 36107
Additional hops: 2973
Set signal latency stall time: 16
Reenqueueing errored packet 575984 at time 36168
Additional hops: 2978
Set signal latency stall time: 10
Reenqueueing errored packet 577408 at time 36240
Additional hops: 2983
Set signal latency stall time: 10
Reenqueueing errored packet 577987 at time 36274
Additional hops: 2993
Set signal latency stall time: 20
Reenqueueing errored packet 577873 at time 36295
Additional hops: 3001
Set signal latency stall time: 16
Reenqueueing errored packet 581926 at time 36542
Additional hops: 3006
Set signal latency stall time: 10
Reenqueueing errored packet 582410 at time 36559
Additional hops: 3017
Set signal latency stall time: 22
Reenqueueing errored packet 583464 at time 36658
Additional hops: 3027
Set signal latency stall time: 20
Reenqueueing errored packet 584700 at time 36730
Additional hops: 3037
Set signal latency stall time: 20
Additional hops: 3044
Set signal latency stall time: 14
Reenqueueing errored packet 586375 at time 36837
Reenqueueing errored packet 586793 at time 36847
Additional hops: 3053
Set signal latency stall time: 18
Reenqueueing errored packet 591902 at time 37178
Additional hops: 3059
Set signal latency stall time: 12
Reenqueueing errored packet 593092 at time 37240
Additional hops: 3063
Set signal latency stall time: 8
Reenqueueing errored packet 593766 at time 37268
Additional hops: 3071
Set signal latency stall time: 16
Reenqueueing errored packet 594175 at time 37316
Additional hops: 3077
Set signal latency stall time: 12
Reenqueueing errored packet 595336 at time 37378
Additional hops: 3084
Set signal latency stall time: 14
Reenqueueing errored packet 596413 at time 37451
Additional hops: 3091
Set signal latency stall time: 14
Reenqueueing errored packet 596686 at time 37468
Additional hops: 3101
Set signal latency stall time: 20
Reenqueueing errored packet 598814 at time 37612
Additional hops: 3106
Set signal latency stall time: 10
Reenqueueing errored packet 599463 at time 37628
Additional hops: 3119
Set signal latency stall time: 26
Reenqueueing errored packet 599577 at time 37675
Additional hops: 3127
Set signal latency stall time: 16
Additional hops: 3133
Set signal latency stall time: 12
Reenqueueing errored packet 600978 at time 37728
Reenqueueing errored packet 600818 at time 37729
Additional hops: 3140
Set signal latency stall time: 14
Reenqueueing errored packet 601263 at time 37751
Additional hops: 3149
Set signal latency stall time: 18
Reenqueueing errored packet 601469 at time 37777
Additional hops: 3152
Set signal latency stall time: 6
Reenqueueing errored packet 603046 at time 37845
Additional hops: 3162
Set signal latency stall time: 20
Additional hops: 3170
Set signal latency stall time: 16
Reenqueueing errored packet 604469 at time 37970
Additional hops: 3176
Set signal latency stall time: 12
Reenqueueing errored packet 604734 at time 37977
Reenqueueing errored packet 605136 at time 37989
Additional hops: 3187
Set signal latency stall time: 22
Reenqueueing errored packet 605111 at time 38012
Additional hops: 3201
Set signal latency stall time: 28
Reenqueueing errored packet 612454 at time 38482
Additional hops: 3206
Set signal latency stall time: 10
Reenqueueing errored packet 613842 at time 38525
Additional hops: 3215
Set signal latency stall time: 18
Reenqueueing errored packet 614402 at time 38578
Additional hops: 3220
Set signal latency stall time: 10
Additional hops: 3226
Set signal latency stall time: 12
Reenqueueing errored packet 615866 at time 38650
Reenqueueing errored packet 615930 at time 38658
Additional hops: 3234
Set signal latency stall time: 16
Reenqueueing errored packet 616567 at time 38706
Additional hops: 3245
Set signal latency stall time: 22
Reenqueueing errored packet 617484 at time 38777
Additional hops: 3257
Set signal latency stall time: 24
Reenqueueing errored packet 618314 at time 38835
Additional hops: 3266
Set signal latency stall time: 18
Reenqueueing errored packet 619236 at time 38879
Additional hops: 3275
Set signal latency stall time: 18
Reenqueueing errored packet 619793 at time 38911
Additional hops: 3283
Set signal latency stall time: 16
Reenqueueing errored packet 620623 at time 38960
Additional hops: 3289
Set signal latency stall time: 12
Reenqueueing errored packet 622188 at time 39048
Additional hops: 3298
Set signal latency stall time: 18
Reenqueueing errored packet 625115 at time 39248
Additional hops: 3306
Set signal latency stall time: 16
Reenqueueing errored packet 625768 at time 39283
Additional hops: 3311
Set signal latency stall time: 10
Reenqueueing errored packet 626635 at time 39323
Additional hops: 3320
Set signal latency stall time: 18
Additional hops: 3329
Set signal latency stall time: 18
Reenqueueing errored packet 628510 at time 39463
Reenqueueing errored packet 628679 at time 39472
Additional hops: 3337
Set signal latency stall time: 16
Reenqueueing errored packet 630669 at time 39590
Additional hops: 3348
Set signal latency stall time: 22
Reenqueueing errored packet 631075 at time 39630
Additional hops: 3357
Set signal latency stall time: 18
Reenqueueing errored packet 632046 at time 39685
Additional hops: 3368
Set signal latency stall time: 22
Reenqueueing errored packet 632388 at time 39713
Additional hops: 3374
Set signal latency stall time: 12
Reenqueueing errored packet 633935 at time 39780
Additional hops: 3377
Set signal latency stall time: 6
Reenqueueing errored packet 635212 at time 39841
Additional hops: 3387
Set signal latency stall time: 20
Reenqueueing errored packet 635101 at time 39869
Additional hops: 3401
Set signal latency stall time: 28
Reenqueueing errored packet 635645 at time 39922
Additional hops: 3409
Set signal latency stall time: 16
Class 0:
Packet latency average = 21.6853
	minimum = 5
	maximum = 120
Network latency average = 21.6496
	minimum = 5
	maximum = 56
Slowest packet = 479608
Flit latency average = 21.6565
	minimum = 5
	maximum = 56
Slowest flit = 526848
Fragmentation average = 0
	minimum = 0
	maximum = 0
Injected packet rate average = 0.249389
	minimum = 0.2406 (at node 4)
	maximum = 0.2602 (at node 32)
Accepted packet rate average = 0.249355
	minimum = 0.2388 (at node 20)
	maximum = 0.2601 (at node 31)
Injected flit rate average = 0.249389
	minimum = 0.2406 (at node 4)
	maximum = 0.2602 (at node 32)
Accepted flit rate average= 0.249355
	minimum = 0.2388 (at node 20)
	maximum = 0.2601 (at node 31)
Injected packet length average = 1
Accepted packet length average = 1
Total in-flight flits = 352 (352 measured)
latency change    = 0.000699873
throughput change = 0.00109658
Reenqueueing errored packet 637563 at time 40010
Additional hops: 3413
Set signal latency stall time: 8
Reenqueueing errored packet 639394 at time 40105
Additional hops: 3415
Set signal latency stall time: 4
Reenqueueing errored packet 643732 at time 40364
Additional hops: 3419
Set signal latency stall time: 8
Reenqueueing errored packet 643769 at time 40376
Additional hops: 3426
Set signal latency stall time: 14
Reenqueueing errored packet 654823 at time 41069
Additional hops: 3435
Set signal latency stall time: 18
Reenqueueing errored packet 655319 at time 41112
Additional hops: 3442
Set signal latency stall time: 14
Reenqueueing errored packet 658999 at time 41336
Additional hops: 3446
Set signal latency stall time: 8
Reenqueueing errored packet 662557 at time 41541
Additional hops: 3453
Set signal latency stall time: 14
Reenqueueing errored packet 665488 at time 41741
Additional hops: 3464
Set signal latency stall time: 22
Reenqueueing errored packet 667231 at time 41873
Additional hops: 3471
Set signal latency stall time: 14
Reenqueueing errored packet 669374 at time 41989
Additional hops: 3480
Set signal latency stall time: 18
Reenqueueing errored packet 672480 at time 42184
Additional hops: 3488
Set signal latency stall time: 16
Reenqueueing errored packet 673366 at time 42235
Additional hops: 3492
Set signal latency stall time: 8
Reenqueueing errored packet 673981 at time 42255
Additional hops: 3502
Set signal latency stall time: 20
Reenqueueing errored packet 675150 at time 42358
Additional hops: 3512
Set signal latency stall time: 20
Reenqueueing errored packet 676578 at time 42447
Additional hops: 3522
Set signal latency stall time: 20
Reenqueueing errored packet 677115 at time 42481
Additional hops: 3532
Set signal latency stall time: 20
Reenqueueing errored packet 681160 at time 42739
Additional hops: 3535
Set signal latency stall time: 6
Reenqueueing errored packet 683750 at time 42871
Additional hops: 3543
Set signal latency stall time: 16
Reenqueueing errored packet 686505 at time 43070
Additional hops: 3548
Set signal latency stall time: 10
Reenqueueing errored packet 687677 at time 43128
Additional hops: 3555
Set signal latency stall time: 14
Reenqueueing errored packet 688463 at time 43189
Additional hops: 3562
Set signal latency stall time: 14
Reenqueueing errored packet 690459 at time 43315
Additional hops: 3567
Set signal latency stall time: 10
Additional hops: 3575
Set signal latency stall time: 16
Reenqueueing errored packet 690942 at time 43334
Reenqueueing errored packet 690830 at time 43343
Additional hops: 3579
Set signal latency stall time: 8
Reenqueueing errored packet 691388 at time 43356
Additional hops: 3586
Set signal latency stall time: 14
Reenqueueing errored packet 694336 at time 43555
Additional hops: 3591
Set signal latency stall time: 10
Reenqueueing errored packet 695162 at time 43597
Additional hops: 3597
Set signal latency stall time: 12
Reenqueueing errored packet 696209 at time 43670
Additional hops: 3604
Set signal latency stall time: 14
Reenqueueing errored packet 696903 at time 43717
Additional hops: 3612
Set signal latency stall time: 16
Reenqueueing errored packet 697957 at time 43788
Additional hops: 3616
Set signal latency stall time: 8
Reenqueueing errored packet 701211 at time 43972
Additional hops: 3627
Set signal latency stall time: 22
Reenqueueing errored packet 701027 at time 43997
Additional hops: 3637
Set signal latency stall time: 20
Reenqueueing errored packet 706999 at time 44368
Additional hops: 3644
Set signal latency stall time: 14
Reenqueueing errored packet 708025 at time 44415
Additional hops: 3657
Set signal latency stall time: 26
Reenqueueing errored packet 708142 at time 44455
Additional hops: 3669
Set signal latency stall time: 24
Reenqueueing errored packet 709412 at time 44530
Additional hops: 3671
Set signal latency stall time: 4
Reenqueueing errored packet 710893 at time 44567
Additional hops: 3678
Set signal latency stall time: 14
Additional hops: 3683
Set signal latency stall time: 10
Reenqueueing errored packet 712712 at time 44701
Reenqueueing errored packet 712553 at time 44701
Additional hops: 3691
Set signal latency stall time: 16
Reenqueueing errored packet 713431 at time 44762
Additional hops: 3700
Set signal latency stall time: 18
Reenqueueing errored packet 716364 at time 44951
Additional hops: 3708
Set signal latency stall time: 16
Reenqueueing errored packet 717929 at time 45049
Additional hops: 3718
Set signal latency stall time: 20
Reenqueueing errored packet 720935 at time 45244
Additional hops: 3727
Set signal latency stall time: 18
Reenqueueing errored packet 721760 at time 45293
Additional hops: 3735
Set signal latency stall time: 16
Reenqueueing errored packet 723702 at time 45412
Additional hops: 3743
Set signal latency stall time: 16
Additional hops: 3748
Set signal latency stall time: 10
Reenqueueing errored packet 728398 at time 45698
Reenqueueing errored packet 728759 at time 45707
Additional hops: 3759
Set signal latency stall time: 22
Reenqueueing errored packet 730994 at time 45878
Additional hops: 3769
Set signal latency stall time: 20
Additional hops: 3774
Set signal latency stall time: 10
Reenqueueing errored packet 733180 at time 45986
Reenqueueing errored packet 732914 at time 45995
Additional hops: 3782
Set signal latency stall time: 16
Reenqueueing errored packet 734427 at time 46083
Additional hops: 3789
Set signal latency stall time: 14
Additional hops: 3795
Set signal latency stall time: 12
Reenqueueing errored packet 735075 at time 46117
Reenqueueing errored packet 735352 at time 46128
Additional hops: 3799
Set signal latency stall time: 8
Reenqueueing errored packet 735859 at time 46149
Additional hops: 3808
Set signal latency stall time: 18
Reenqueueing errored packet 735873 at time 46176
Additional hops: 3817
Set signal latency stall time: 18
Reenqueueing errored packet 737539 at time 46284
Additional hops: 3821
Set signal latency stall time: 8
Reenqueueing errored packet 738176 at time 46299
Additional hops: 3827
Set signal latency stall time: 12
Reenqueueing errored packet 738559 at time 46333
Additional hops: 3833
Set signal latency stall time: 12
Reenqueueing errored packet 738962 at time 46364
Additional hops: 3837
Set signal latency stall time: 8
Reenqueueing errored packet 742174 at time 46553
Additional hops: 3839
Set signal latency stall time: 4
Reenqueueing errored packet 742476 at time 46564
Additional hops: 3847
Set signal latency stall time: 16
Additional hops: 3856
Set signal latency stall time: 18
Reenqueueing errored packet 745570 at time 46792
Reenqueueing errored packet 745594 at time 46795
Additional hops: 3859
Set signal latency stall time: 6
Reenqueueing errored packet 747020 at time 46858
Additional hops: 3864
Set signal latency stall time: 10
Additional hops: 3873
Set signal latency stall time: 18
Additional hops: 3878
Set signal latency stall time: 10
Reenqueueing errored packet 747880 at time 46919
Reenqueueing errored packet 747961 at time 46924
Reenqueueing errored packet 747675 at time 46929
Additional hops: 3887
Set signal latency stall time: 18
Reenqueueing errored packet 749924 at time 47064
Additional hops: 3893
Set signal latency stall time: 12
Reenqueueing errored packet 752479 at time 47206
Additional hops: 3898
Set signal latency stall time: 10
Reenqueueing errored packet 753890 at time 47289
Additional hops: 3909
Set signal latency stall time: 22
Reenqueueing errored packet 754064 at time 47328
Additional hops: 3917
Set signal latency stall time: 16
Reenqueueing errored packet 755608 at time 47410
Additional hops: 3926
Set signal latency stall time: 18
Reenqueueing errored packet 758283 at time 47578
Additional hops: 3936
Set signal latency stall time: 20
Additional hops: 3943
Set signal latency stall time: 14
Reenqueueing errored packet 759392 at time 47651
Reenqueueing errored packet 759801 at time 47662
Additional hops: 3949
Set signal latency stall time: 12
Reenqueueing errored packet 762107 at time 47801
Additional hops: 3951
Set signal latency stall time: 4
Reenqueueing errored packet 763517 at time 47871
Additional hops: 3959
Set signal latency stall time: 16
Reenqueueing errored packet 766987 at time 48121
Additional hops: 3967
Set signal latency stall time: 16
Reenqueueing errored packet 768325 at time 48207
Additional hops: 3977
Set signal latency stall time: 20
Reenqueueing errored packet 769067 at time 48264
Additional hops: 3982
Set signal latency stall time: 10
Reenqueueing errored packet 775533 at time 48638
Additional hops: 3990
Set signal latency stall time: 16
Additional hops: 3993
Set signal latency stall time: 6
Reenqueueing errored packet 779348 at time 48865
Reenqueueing errored packet 778986 at time 48865
Additional hops: 3999
Set signal latency stall time: 12
Reenqueueing errored packet 782881 at time 49104
Additional hops: 4007
Set signal latency stall time: 16
Reenqueueing errored packet 783345 at time 49139
Additional hops: 4014
Set signal latency stall time: 14
Reenqueueing errored packet 783956 at time 49173
Additional hops: 4020
Set signal latency stall time: 12
Reenqueueing errored packet 784326 at time 49189
Additional hops: 4028
Set signal latency stall time: 16
Additional hops: 4038
Set signal latency stall time: 20
Reenqueueing errored packet 784851 at time 49231
Reenqueueing errored packet 784787 at time 49237
Additional hops: 4049
Set signal latency stall time: 22
Reenqueueing errored packet 786122 at time 49326
Additional hops: 4053
Set signal latency stall time: 8
Reenqueueing errored packet 787861 at time 49400
Additional hops: 4057
Set signal latency stall time: 8
Reenqueueing errored packet 789512 at time 49499
Additional hops: 4062
Set signal latency stall time: 10
Reenqueueing errored packet 790885 at time 49591
Additional hops: 4067
Set signal latency stall time: 10
Reenqueueing errored packet 792932 at time 49718
Additional hops: 4074
Set signal latency stall time: 14
Reenqueueing errored packet 796170 at time 49927
Additional hops: 4079
Set signal latency stall time: 10
Class 0:
Packet latency average = 21.7267
	minimum = 5
	maximum = 120
Network latency average = 21.6971
	minimum = 5
	maximum = 60
Slowest packet = 479608
Flit latency average = 21.7005
	minimum = 5
	maximum = 60
Slowest flit = 743329
Fragmentation average = 0
	minimum = 0
	maximum = 0
Injected packet rate average = 0.249634
	minimum = 0.24385 (at node 16)
	maximum = 0.25575 (at node 44)
Accepted packet rate average = 0.249637
	minimum = 0.2428 (at node 14)
	maximum = 0.25585 (at node 57)
Injected flit rate average = 0.249634
	minimum = 0.24385 (at node 16)
	maximum = 0.25575 (at node 44)
Accepted flit rate average= 0.249637
	minimum = 0.2428 (at node 14)
	maximum = 0.25585 (at node 57)
Injected packet length average = 1
Accepted packet length average = 1
Total in-flight flits = 326 (326 measured)
latency change    = 0.00190522
throughput change = 0.00112977
Reenqueueing errored packet 797645 at time 50010
Additional hops: 4086
Set signal latency stall time: 14
Reenqueueing errored packet 799127 at time 50111
Additional hops: 4095
Set signal latency stall time: 18
Reenqueueing errored packet 801058 at time 50242
Additional hops: 4109
Set signal latency stall time: 28
Reenqueueing errored packet 801756 at time 50310
Additional hops: 4113
Set signal latency stall time: 8
Additional hops: 4121
Set signal latency stall time: 16
Reenqueueing errored packet 802842 at time 50321
Reenqueueing errored packet 802705 at time 50332
Additional hops: 4131
Set signal latency stall time: 20
Reenqueueing errored packet 803189 at time 50375
Additional hops: 4145
Set signal latency stall time: 28
Reenqueueing errored packet 804480 at time 50475
Additional hops: 4150
Set signal latency stall time: 10
Reenqueueing errored packet 805391 at time 50489
Additional hops: 4155
Set signal latency stall time: 10
Reenqueueing errored packet 807160 at time 50596
Additional hops: 4159
Set signal latency stall time: 8
Reenqueueing errored packet 810342 at time 50789
Additional hops: 4162
Set signal latency stall time: 6
Reenqueueing errored packet 811142 at time 50832
Additional hops: 4166
Set signal latency stall time: 8
Reenqueueing errored packet 812541 at time 50924
Additional hops: 4170
Set signal latency stall time: 8
Reenqueueing errored packet 813443 at time 50980
Additional hops: 4178
Set signal latency stall time: 16
Reenqueueing errored packet 813722 at time 51019
Additional hops: 4189
Set signal latency stall time: 22
Reenqueueing errored packet 815634 at time 51154
Additional hops: 4200
Set signal latency stall time: 22
Reenqueueing errored packet 816379 at time 51205
Additional hops: 4207
Set signal latency stall time: 14
Reenqueueing errored packet 817677 at time 51261
Additional hops: 4216
Set signal latency stall time: 18
Reenqueueing errored packet 818446 at time 51319
Additional hops: 4229
Set signal latency stall time: 26
Reenqueueing errored packet 819581 at time 51409
Additional hops: 4233
Set signal latency stall time: 8
Reenqueueing errored packet 823553 at time 51614
Additional hops: 4239
Set signal latency stall time: 12
Additional hops: 4248
Set signal latency stall time: 18
Reenqueueing errored packet 824340 at time 51671
Reenqueueing errored packet 824294 at time 51683
Additional hops: 4251
Set signal latency stall time: 6
Reenqueueing errored packet 825773 at time 51741
Additional hops: 4253
Set signal latency stall time: 4
Reenqueueing errored packet 827641 at time 51850
Additional hops: 4258
Set signal latency stall time: 10
Additional hops: 4266
Set signal latency stall time: 16
Reenqueueing errored packet 829168 at time 51963
Reenqueueing errored packet 829111 at time 51975
Additional hops: 4274
Set signal latency stall time: 16
Additional hops: 4282
Set signal latency stall time: 16
Reenqueueing errored packet 830184 at time 52045
Reenqueueing errored packet 830276 at time 52049
Additional hops: 4287
Set signal latency stall time: 10
Reenqueueing errored packet 832428 at time 52168
Additional hops: 4297
Set signal latency stall time: 20
Reenqueueing errored packet 832858 at time 52218
Additional hops: 4299
Set signal latency stall time: 4
Reenqueueing errored packet 835492 at time 52340
Additional hops: 4305
Set signal latency stall time: 12
Reenqueueing errored packet 838723 at time 52566
Additional hops: 4313
Set signal latency stall time: 16
Reenqueueing errored packet 842194 at time 52795
Additional hops: 4322
Set signal latency stall time: 18
Reenqueueing errored packet 843673 at time 52889
Additional hops: 4325
Set signal latency stall time: 6
Reenqueueing errored packet 845442 at time 52970
Additional hops: 4329
Set signal latency stall time: 8
Reenqueueing errored packet 847080 at time 53083
Additional hops: 4335
Set signal latency stall time: 12
Reenqueueing errored packet 847865 at time 53142
Additional hops: 4342
Set signal latency stall time: 14
Additional hops: 4349
Set signal latency stall time: 14
Reenqueueing errored packet 849002 at time 53222
Reenqueueing errored packet 849205 at time 53235
Additional hops: 4354
Set signal latency stall time: 10
Reenqueueing errored packet 851379 at time 53361
Additional hops: 4364
Set signal latency stall time: 20
Additional hops: 4372
Set signal latency stall time: 16
Reenqueueing errored packet 851694 at time 53409
Reenqueueing errored packet 851903 at time 53411
Additional hops: 4379
Set signal latency stall time: 14
Reenqueueing errored packet 855304 at time 53623
Additional hops: 4390
Set signal latency stall time: 22
Reenqueueing errored packet 855783 at time 53671
Additional hops: 4396
Set signal latency stall time: 12
Reenqueueing errored packet 856810 at time 53709
Additional hops: 4406
Set signal latency stall time: 20
Reenqueueing errored packet 857251 at time 53760
Additional hops: 4416
Set signal latency stall time: 20
Reenqueueing errored packet 857665 at time 53783
Additional hops: 4421
Set signal latency stall time: 10
Reenqueueing errored packet 859085 at time 53850
Additional hops: 4424
Set signal latency stall time: 6
Reenqueueing errored packet 859483 at time 53866
Additional hops: 4429
Set signal latency stall time: 10
Additional hops: 4438
Set signal latency stall time: 18
Reenqueueing errored packet 860696 at time 53953
Additional hops: 4444
Set signal latency stall time: 12
Reenqueueing errored packet 860869 at time 53968
Reenqueueing errored packet 860647 at time 53970
Additional hops: 4456
Set signal latency stall time: 24
Reenqueueing errored packet 860897 at time 54000
Additional hops: 4459
Set signal latency stall time: 6
Reenqueueing errored packet 863260 at time 54104
Additional hops: 4465
Set signal latency stall time: 12
Additional hops: 4475
Set signal latency stall time: 20
Reenqueueing errored packet 864910 at time 54224
Reenqueueing errored packet 864686 at time 54236
Additional hops: 4483
Set signal latency stall time: 16
Additional hops: 4494
Set signal latency stall time: 22
Reenqueueing errored packet 865482 at time 54269
Reenqueueing errored packet 865562 at time 54288
Additional hops: 4497
Set signal latency stall time: 6
Reenqueueing errored packet 867352 at time 54359
Additional hops: 4503
Set signal latency stall time: 12
Reenqueueing errored packet 867881 at time 54410
Additional hops: 4512
Set signal latency stall time: 18
Additional hops: 4520
Set signal latency stall time: 16
Reenqueueing errored packet 868534 at time 54471
Reenqueueing errored packet 868853 at time 54480
Additional hops: 4526
Set signal latency stall time: 12
Reenqueueing errored packet 869951 at time 54537
Additional hops: 4535
Set signal latency stall time: 18
Reenqueueing errored packet 874122 at time 54808
Additional hops: 4539
Set signal latency stall time: 8
Reenqueueing errored packet 874870 at time 54832
Additional hops: 4543
Set signal latency stall time: 8
Reenqueueing errored packet 876254 at time 54917
Additional hops: 4548
Set signal latency stall time: 10
Reenqueueing errored packet 876396 at time 54932
Additional hops: 4549
Set signal latency stall time: 2
Reenqueueing errored packet 877092 at time 54955
Additional hops: 4557
Set signal latency stall time: 16
Reenqueueing errored packet 877210 at time 55000
Additional hops: 4568
Set signal latency stall time: 22
Reenqueueing errored packet 877369 at time 55026
Additional hops: 4582
Set signal latency stall time: 28
Additional hops: 4586
Set signal latency stall time: 8
Additional hops: 4596
Set signal latency stall time: 20
Reenqueueing errored packet 881413 at time 55244
Reenqueueing errored packet 880741 at time 55253
Reenqueueing errored packet 881169 at time 55262
Additional hops: 4608
Set signal latency stall time: 24
Reenqueueing errored packet 882294 at time 55339
Additional hops: 4617
Set signal latency stall time: 18
Reenqueueing errored packet 884294 at time 55449
Additional hops: 4622
Set signal latency stall time: 10
Reenqueueing errored packet 886388 at time 55558
Additional hops: 4624
Set signal latency stall time: 4
Reenqueueing errored packet 888938 at time 55704
Additional hops: 4636
Set signal latency stall time: 24
Reenqueueing errored packet 889143 at time 55769
Additional hops: 4641
Set signal latency stall time: 10
Reenqueueing errored packet 890024 at time 55786
Additional hops: 4650
Set signal latency stall time: 18
Reenqueueing errored packet 890211 at time 55820
Additional hops: 4656
Set signal latency stall time: 12
Reenqueueing errored packet 890705 at time 55834
Additional hops: 4663
Set signal latency stall time: 14
Reenqueueing errored packet 896139 at time 56179
Additional hops: 4669
Set signal latency stall time: 12
Reenqueueing errored packet 898017 at time 56295
Additional hops: 4681
Set signal latency stall time: 24
Reenqueueing errored packet 900299 at time 56470
Additional hops: 4692
Set signal latency stall time: 22
Reenqueueing errored packet 901964 at time 56571
Additional hops: 4696
Set signal latency stall time: 8
Reenqueueing errored packet 902705 at time 56583
Additional hops: 4701
Set signal latency stall time: 10
Reenqueueing errored packet 904600 at time 56707
Additional hops: 4709
Set signal latency stall time: 16
Reenqueueing errored packet 905426 at time 56773
Additional hops: 4720
Set signal latency stall time: 22
Reenqueueing errored packet 912213 at time 57209
Additional hops: 4725
Set signal latency stall time: 10
Reenqueueing errored packet 914482 at time 57320
Additional hops: 4734
Set signal latency stall time: 18
Reenqueueing errored packet 916558 at time 57471
Additional hops: 4741
Set signal latency stall time: 14
Additional hops: 4746
Set signal latency stall time: 10
Reenqueueing errored packet 917516 at time 57524
Reenqueueing errored packet 917729 at time 57525
Additional hops: 4754
Set signal latency stall time: 16
Reenqueueing errored packet 917977 at time 57556
Additional hops: 4757
Set signal latency stall time: 6
Reenqueueing errored packet 919452 at time 57624
Additional hops: 4764
Set signal latency stall time: 14
Reenqueueing errored packet 920282 at time 57695
Additional hops: 4770
Set signal latency stall time: 12
Reenqueueing errored packet 920789 at time 57724
Additional hops: 4782
Set signal latency stall time: 24
Reenqueueing errored packet 923654 at time 57926
Additional hops: 4786
Set signal latency stall time: 8
Reenqueueing errored packet 924842 at time 57959
Additional hops: 4796
Set signal latency stall time: 20
Reenqueueing errored packet 927043 at time 58127
Additional hops: 4804
Set signal latency stall time: 16
Reenqueueing errored packet 928247 at time 58194
Additional hops: 4810
Set signal latency stall time: 12
Reenqueueing errored packet 930224 at time 58301
Additional hops: 4819
Set signal latency stall time: 18
Additional hops: 4827
Set signal latency stall time: 16
Reenqueueing errored packet 930738 at time 58348
Reenqueueing errored packet 930900 at time 58353
Additional hops: 4834
Set signal latency stall time: 14
Reenqueueing errored packet 932466 at time 58444
Additional hops: 4844
Set signal latency stall time: 20
Reenqueueing errored packet 932915 at time 58487
Additional hops: 4848
Set signal latency stall time: 8
Additional hops: 4853
Set signal latency stall time: 10
Reenqueueing errored packet 937667 at time 58748
Additional hops: 4856
Set signal latency stall time: 6
Reenqueueing errored packet 937853 at time 58755
Reenqueueing errored packet 937682 at time 58755
Additional hops: 4858
Set signal latency stall time: 4
Additional hops: 4870
Set signal latency stall time: 24
Reenqueueing errored packet 940703 at time 58925
Reenqueueing errored packet 940219 at time 58949
Additional hops: 4879
Set signal latency stall time: 18
Reenqueueing errored packet 941444 at time 59007
Additional hops: 4888
Set signal latency stall time: 18
Reenqueueing errored packet 941842 at time 59031
Additional hops: 4897
Set signal latency stall time: 18
Additional hops: 4903
Set signal latency stall time: 12
Reenqueueing errored packet 942437 at time 59069
Reenqueueing errored packet 942873 at time 59080
Additional hops: 4907
Set signal latency stall time: 8
Reenqueueing errored packet 952027 at time 59628
Additional hops: 4912
Set signal latency stall time: 10
Reenqueueing errored packet 956012 at time 59885
Additional hops: 4924
Set signal latency stall time: 24
Additional hops: 4931
Set signal latency stall time: 14
Additional hops: 4941
Set signal latency stall time: 20
Reenqueueing errored packet 956454 at time 59924
Reenqueueing errored packet 956187 at time 59931
Reenqueueing errored packet 956382 at time 59934
Class 0:
Packet latency average = 21.7231
	minimum = 5
	maximum = 129
Network latency average = 21.6932
	minimum = 5
	maximum = 60
Slowest packet = 479608
Flit latency average = 21.6954
	minimum = 5
	maximum = 60
Slowest flit = 743329
Fragmentation average = 0
	minimum = 0
	maximum = 0
Injected packet rate average = 0.250023
	minimum = 0.245967 (at node 40)
	maximum = 0.256267 (at node 37)
Accepted packet rate average = 0.250015
	minimum = 0.243333 (at node 4)
	maximum = 0.256533 (at node 15)
Injected flit rate average = 0.250023
	minimum = 0.245967 (at node 40)
	maximum = 0.256267 (at node 37)
Accepted flit rate average= 0.250015
	minimum = 0.243333 (at node 4)
	maximum = 0.256533 (at node 15)
Injected packet length average = 1
Accepted packet length average = 1
Total in-flight flits = 344 (344 measured)
latency change    = 0.000168205
throughput change = 0.00151345
Draining all recorded packets ...
Draining remaining packets ...
Time taken is 60083 cycles
====== Overall Traffic Statistics ======
====== Traffic class 0 ======
Packet latency average = 21.7254 (1 samples)
	minimum = 5 (1 samples)
	maximum = 129 (1 samples)
Network latency average = 21.6955 (1 samples)
	minimum = 5 (1 samples)
	maximum = 60 (1 samples)
Flit latency average = 21.6977 (1 samples)
	minimum = 5 (1 samples)
	maximum = 60 (1 samples)
Fragmentation average = 0 (1 samples)
	minimum = 0 (1 samples)
	maximum = 0 (1 samples)
Injected packet rate average = 0.250023 (1 samples)
	minimum = 0.245967 (1 samples)
	maximum = 0.256267 (1 samples)
Accepted packet rate average = 0.250015 (1 samples)
	minimum = 0.243333 (1 samples)
	maximum = 0.256533 (1 samples)
Injected flit rate average = 0.250023 (1 samples)
	minimum = 0.245967 (1 samples)
	maximum = 0.256267 (1 samples)
Accepted flit rate average = 0.250015 (1 samples)
	minimum = 0.243333 (1 samples)
	maximum = 0.256533 (1 samples)
Injected packet size average = 1 (1 samples)
Accepted packet size average = 1 (1 samples)
Hops average = 6.26029 (1 samples)
Total run time 87.3043
